/*---------------------------------------------------------------------------*\
| =========                 |                                                 |
| \\      /  F ield         | OpenFOAM: The Open Source CFD Toolbox           |
|  \\    /   O peration     | Version:  v2012                                 |
|   \\  /    A nd           | Website:  www.openfoam.com                      |
|    \\/     M anipulation  |                                                 |
\*---------------------------------------------------------------------------*/
Build  : 79e353b84e-20201222 OPENFOAM=2012
Arch   : "LSB;label=32;scalar=64"
Exec   : rhoCentralFoamRK4
Date   : Jun 18 2022
Time   : 02:11:43
Host   : sylogin1.pi.sjtu.edu.cn
PID    : 964956
I/O    : uncollated
Case   : /dssg/home/acct-medgm/medgm/openfoam-shockTube/tutorials/compressible/sineWave/sineWave-rk4-0.5
nProcs : 1
trapFpe: Floating point exception trapping enabled (FOAM_SIGFPE).
fileModificationChecking : Monitoring run-time modified files using timeStampMaster (fileModificationSkew 5, maxFileModificationPolls 20)
allowSystemOperations : Allowing user-supplied system call operations

// * * * * * * * * * * * * * * * * * * * * * * * * * * * * * * * * * * * * * //
Create time

Create mesh for time = 0

Reading thermophysical properties

Selecting thermodynamics package 
{
    type            hePsiThermo;
    mixture         pureMixture;
    transport       const;
    thermo          hConst;
    equationOfState perfectGas;
    specie          specie;
    energy          sensibleInternalEnergy;
}

Reading field U

Creating turbulence model

Selecting turbulence model type laminar
Selecting laminar stress model Stokes
fluxScheme: Kurganov

Starting time loop

fieldAverage fieldAverage:
    Restarting averaging for fields:
        U: starting averaging at time 0
        p: starting averaging at time 0

Mean and max Courant Numbers = 0.1389099888499554 0.1389099888499813
deltaT = 2.398081534772182e-06
diagonal:  Solving for rho, Initial residual = 0, Final residual = 0, No Iterations 0
diagonal:  Solving for rhoUx, Initial residual = 0, Final residual = 0, No Iterations 0
diagonal:  Solving for rhoE, Initial residual = 0, Final residual = 0, No Iterations 0
Mean and max Courant Numbers = 0.1665587396282439 0.166558739628275
deltaT = 2.873563218390805e-06
diagonal:  Solving for rho, Initial residual = 0, Final residual = 0, No Iterations 0
diagonal:  Solving for rhoUx, Initial residual = 0, Final residual = 0, No Iterations 0
diagonal:  Solving for rhoE, Initial residual = 0, Final residual = 0, No Iterations 0
Mean and max Courant Numbers = 0.1995833173131543 0.1995833173131915
deltaT = 3.448275862068965e-06
diagonal:  Solving for rho, Initial residual = 0, Final residual = 0, No Iterations 0
diagonal:  Solving for rhoUx, Initial residual = 0, Final residual = 0, No Iterations 0
diagonal:  Solving for rhoE, Initial residual = 0, Final residual = 0, No Iterations 0
Mean and max Courant Numbers = 0.2394999807757851 0.2394999807758298
deltaT = 4.132231404958678e-06
diagonal:  Solving for rho, Initial residual = 0, Final residual = 0, No Iterations 0
diagonal:  Solving for rhoUx, Initial residual = 0, Final residual = 0, No Iterations 0
diagonal:  Solving for rhoE, Initial residual = 0, Final residual = 0, No Iterations 0
Time = 4.13223e-06

ExecutionTime = 0.05 s  ClockTime = 0 s

fieldAverage fieldAverage:
    Reading/initialising field UMean
    Reading/initialising field pMean

fieldAverage fieldAverage write:
    Calculating averages

Mean and max Courant Numbers = 0.2870041091941227 0.2870041091941763
deltaT = 4.954566012910654e-06
diagonal:  Solving for rho, Initial residual = 0, Final residual = 0, No Iterations 0
diagonal:  Solving for rhoUx, Initial residual = 0, Final residual = 0, No Iterations 0
diagonal:  Solving for rhoE, Initial residual = 0, Final residual = 0, No Iterations 0
Mean and max Courant Numbers = 0.3441193548048934 0.3441193548049578
deltaT = 5.927784336875247e-06
diagonal:  Solving for rho, Initial residual = 0, Final residual = 0, No Iterations 0
diagonal:  Solving for rhoUx, Initial residual = 0, Final residual = 0, No Iterations 0
diagonal:  Solving for rhoE, Initial residual = 0, Final residual = 0, No Iterations 0
Mean and max Courant Numbers = 0.4117142332128188 0.4117174422808195
deltaT = 7.113341204250296e-06
diagonal:  Solving for rho, Initial residual = 0, Final residual = 0, No Iterations 0
diagonal:  Solving for rhoUx, Initial residual = 0, Final residual = 0, No Iterations 0
diagonal:  Solving for rhoE, Initial residual = 0, Final residual = 0, No Iterations 0
Mean and max Courant Numbers = 0.4940570852361675 0.4940642073235124
deltaT = 8.439557360974927e-06
diagonal:  Solving for rho, Initial residual = 0, Final residual = 0, No Iterations 0
diagonal:  Solving for rhoUx, Initial residual = 0, Final residual = 0, No Iterations 0
diagonal:  Solving for rhoE, Initial residual = 0, Final residual = 0, No Iterations 0
Time = 1.25718e-05

ExecutionTime = 0.05 s  ClockTime = 0 s

fieldAverage fieldAverage write:
    Calculating averages

Mean and max Courant Numbers = 0.5861694389587458 0.5861866745445099
deltaT = 9.776516942911548e-06
diagonal:  Solving for rho, Initial residual = 0, Final residual = 0, No Iterations 0
diagonal:  Solving for rhoUx, Initial residual = 0, Final residual = 0, No Iterations 0
diagonal:  Solving for rhoE, Initial residual = 0, Final residual = 0, No Iterations 0
Mean and max Courant Numbers = 0.6790279673885936 0.6790494136445815
deltaT = 1.109469900262996e-05
diagonal:  Solving for rho, Initial residual = 0, Final residual = 0, No Iterations 0
diagonal:  Solving for rhoUx, Initial residual = 0, Final residual = 0, No Iterations 0
diagonal:  Solving for rhoE, Initial residual = 0, Final residual = 0, No Iterations 0
Mean and max Courant Numbers = 0.7705823425620243 0.7706316806447412
deltaT = 1.234285264042583e-05
diagonal:  Solving for rho, Initial residual = 0, Final residual = 0, No Iterations 0
diagonal:  Solving for rhoUx, Initial residual = 0, Final residual = 0, No Iterations 0
diagonal:  Solving for rhoE, Initial residual = 0, Final residual = 0, No Iterations 0
Mean and max Courant Numbers = 0.8572728894098799 0.8573423758276398
deltaT = 1.299247646360614e-05
diagonal:  Solving for rho, Initial residual = 0, Final residual = 0, No Iterations 0
diagonal:  Solving for rhoUx, Initial residual = 0, Final residual = 0, No Iterations 0
diagonal:  Solving for rhoE, Initial residual = 0, Final residual = 0, No Iterations 0
Time = 2.55643e-05

ExecutionTime = 0.06 s  ClockTime = 0 s

fieldAverage fieldAverage write:
    Calculating averages

Mean and max Courant Numbers = 0.9023926170821013 0.9024933228333064
deltaT = 1.299247646360614e-05
diagonal:  Solving for rho, Initial residual = 0, Final residual = 0, No Iterations 0
diagonal:  Solving for rhoUx, Initial residual = 0, Final residual = 0, No Iterations 0
diagonal:  Solving for rhoE, Initial residual = 0, Final residual = 0, No Iterations 0
Mean and max Courant Numbers = 0.9023926352510451 0.9024952819456238
deltaT = 1.299247646360614e-05
diagonal:  Solving for rho, Initial residual = 0, Final residual = 0, No Iterations 0
diagonal:  Solving for rhoUx, Initial residual = 0, Final residual = 0, No Iterations 0
diagonal:  Solving for rhoE, Initial residual = 0, Final residual = 0, No Iterations 0
Mean and max Courant Numbers = 0.9023927314209509 0.9025407501267909
deltaT = 1.299247646360614e-05
diagonal:  Solving for rho, Initial residual = 0, Final residual = 0, No Iterations 0
diagonal:  Solving for rhoUx, Initial residual = 0, Final residual = 0, No Iterations 0
diagonal:  Solving for rhoE, Initial residual = 0, Final residual = 0, No Iterations 0
Mean and max Courant Numbers = 0.9023927740015542 0.9025489813171509
deltaT = 1.299247646360614e-05
diagonal:  Solving for rho, Initial residual = 0, Final residual = 0, No Iterations 0
diagonal:  Solving for rhoUx, Initial residual = 0, Final residual = 0, No Iterations 0
diagonal:  Solving for rhoE, Initial residual = 0, Final residual = 0, No Iterations 0
Time = 3.85567e-05

ExecutionTime = 0.06 s  ClockTime = 0 s

fieldAverage fieldAverage write:
    Calculating averages

Mean and max Courant Numbers = 0.9023929829776041 0.9025819073798992
deltaT = 1.299247646360614e-05
diagonal:  Solving for rho, Initial residual = 0, Final residual = 0, No Iterations 0
diagonal:  Solving for rhoUx, Initial residual = 0, Final residual = 0, No Iterations 0
diagonal:  Solving for rhoE, Initial residual = 0, Final residual = 0, No Iterations 0
Mean and max Courant Numbers = 0.9023930051864668 0.9025849596619456
deltaT = 1.299247646360614e-05
diagonal:  Solving for rho, Initial residual = 0, Final residual = 0, No Iterations 0
diagonal:  Solving for rhoUx, Initial residual = 0, Final residual = 0, No Iterations 0
diagonal:  Solving for rhoE, Initial residual = 0, Final residual = 0, No Iterations 0
Mean and max Courant Numbers = 0.9023931064036006 0.9026250760444138
deltaT = 1.299247646360614e-05
diagonal:  Solving for rho, Initial residual = 0, Final residual = 0, No Iterations 0
diagonal:  Solving for rhoUx, Initial residual = 0, Final residual = 0, No Iterations 0
diagonal:  Solving for rhoE, Initial residual = 0, Final residual = 0, No Iterations 0
Mean and max Courant Numbers = 0.9023931729432998 0.9026299419554422
deltaT = 1.299247646360614e-05
diagonal:  Solving for rho, Initial residual = 0, Final residual = 0, No Iterations 0
diagonal:  Solving for rhoUx, Initial residual = 0, Final residual = 0, No Iterations 0
diagonal:  Solving for rhoE, Initial residual = 0, Final residual = 0, No Iterations 0
Time = 5.15492e-05

ExecutionTime = 0.07000000000000001 s  ClockTime = 0 s

fieldAverage fieldAverage write:
    Calculating averages

Mean and max Courant Numbers = 0.9023934432032645 0.9026579745772561
deltaT = 1.299247646360614e-05
diagonal:  Solving for rho, Initial residual = 0, Final residual = 0, No Iterations 0
diagonal:  Solving for rhoUx, Initial residual = 0, Final residual = 0, No Iterations 0
diagonal:  Solving for rhoE, Initial residual = 0, Final residual = 0, No Iterations 0
Mean and max Courant Numbers = 0.902393480189529 0.9026599877636761
deltaT = 1.299247646360614e-05
diagonal:  Solving for rho, Initial residual = 0, Final residual = 0, No Iterations 0
diagonal:  Solving for rhoUx, Initial residual = 0, Final residual = 0, No Iterations 0
diagonal:  Solving for rhoE, Initial residual = 0, Final residual = 0, No Iterations 0
Mean and max Courant Numbers = 0.9023935911490965 0.9026909890457929
deltaT = 1.299247646360614e-05
diagonal:  Solving for rho, Initial residual = 0, Final residual = 0, No Iterations 0
diagonal:  Solving for rhoUx, Initial residual = 0, Final residual = 0, No Iterations 0
diagonal:  Solving for rhoE, Initial residual = 0, Final residual = 0, No Iterations 0
Mean and max Courant Numbers = 0.9023936835056678 0.9026926760678756
deltaT = 1.299247646360614e-05
diagonal:  Solving for rho, Initial residual = 0, Final residual = 0, No Iterations 0
diagonal:  Solving for rhoUx, Initial residual = 0, Final residual = 0, No Iterations 0
diagonal:  Solving for rhoE, Initial residual = 0, Final residual = 0, No Iterations 0
Time = 6.45417e-05

ExecutionTime = 0.07000000000000001 s  ClockTime = 0 s

fieldAverage fieldAverage write:
    Calculating averages

Mean and max Courant Numbers = 0.9023940061178009 0.9027120498785518
deltaT = 1.299247646360614e-05
diagonal:  Solving for rho, Initial residual = 0, Final residual = 0, No Iterations 0
diagonal:  Solving for rhoUx, Initial residual = 0, Final residual = 0, No Iterations 0
diagonal:  Solving for rhoE, Initial residual = 0, Final residual = 0, No Iterations 0
Mean and max Courant Numbers = 0.9023940531253181 0.9027131600778752
deltaT = 1.299247646360614e-05
diagonal:  Solving for rho, Initial residual = 0, Final residual = 0, No Iterations 0
diagonal:  Solving for rhoUx, Initial residual = 0, Final residual = 0, No Iterations 0
diagonal:  Solving for rhoE, Initial residual = 0, Final residual = 0, No Iterations 0
Mean and max Courant Numbers = 0.9023941627065274 0.9027339611884615
deltaT = 1.299247646360614e-05
diagonal:  Solving for rho, Initial residual = 0, Final residual = 0, No Iterations 0
diagonal:  Solving for rhoUx, Initial residual = 0, Final residual = 0, No Iterations 0
diagonal:  Solving for rhoE, Initial residual = 0, Final residual = 0, No Iterations 0
Mean and max Courant Numbers = 0.9023942802154236 0.9027338456348482
deltaT = 1.299247646360614e-05
diagonal:  Solving for rho, Initial residual = 0, Final residual = 0, No Iterations 0
diagonal:  Solving for rhoUx, Initial residual = 0, Final residual = 0, No Iterations 0
diagonal:  Solving for rhoE, Initial residual = 0, Final residual = 0, No Iterations 0
Time = 7.75342e-05

ExecutionTime = 0.07000000000000001 s  ClockTime = 0 s

fieldAverage fieldAverage write:
    Calculating averages

Mean and max Courant Numbers = 0.9023946246835227 0.902753025119517
deltaT = 1.299247646360614e-05
diagonal:  Solving for rho, Initial residual = 0, Final residual = 0, No Iterations 0
diagonal:  Solving for rhoUx, Initial residual = 0, Final residual = 0, No Iterations 0
diagonal:  Solving for rhoE, Initial residual = 0, Final residual = 0, No Iterations 0
Mean and max Courant Numbers = 0.9023946856011069 0.9027551260727494
deltaT = 1.299247646360614e-05
diagonal:  Solving for rho, Initial residual = 0, Final residual = 0, No Iterations 0
diagonal:  Solving for rhoUx, Initial residual = 0, Final residual = 0, No Iterations 0
diagonal:  Solving for rhoE, Initial residual = 0, Final residual = 0, No Iterations 0
Mean and max Courant Numbers = 0.9023947974707514 0.9027635411141919
deltaT = 1.299247646360614e-05
diagonal:  Solving for rho, Initial residual = 0, Final residual = 0, No Iterations 0
diagonal:  Solving for rhoUx, Initial residual = 0, Final residual = 0, No Iterations 0
diagonal:  Solving for rhoE, Initial residual = 0, Final residual = 0, No Iterations 0
Mean and max Courant Numbers = 0.9023949307444666 0.9027661438394816
deltaT = 1.299247646360614e-05
diagonal:  Solving for rho, Initial residual = 0, Final residual = 0, No Iterations 0
diagonal:  Solving for rhoUx, Initial residual = 0, Final residual = 0, No Iterations 0
diagonal:  Solving for rhoE, Initial residual = 0, Final residual = 0, No Iterations 0
Time = 9.05266e-05

ExecutionTime = 0.08 s  ClockTime = 0 s

fieldAverage fieldAverage write:
    Calculating averages

Mean and max Courant Numbers = 0.9023952908447185 0.9027761981634824
deltaT = 1.299247646360614e-05
diagonal:  Solving for rho, Initial residual = 0, Final residual = 0, No Iterations 0
diagonal:  Solving for rhoUx, Initial residual = 0, Final residual = 0, No Iterations 0
diagonal:  Solving for rhoE, Initial residual = 0, Final residual = 0, No Iterations 0
Mean and max Courant Numbers = 0.902395355958522 0.9027771137518331
deltaT = 1.299247646360614e-05
diagonal:  Solving for rho, Initial residual = 0, Final residual = 0, No Iterations 0
diagonal:  Solving for rhoUx, Initial residual = 0, Final residual = 0, No Iterations 0
diagonal:  Solving for rhoE, Initial residual = 0, Final residual = 0, No Iterations 0
Mean and max Courant Numbers = 0.9023954572290481 0.9027774134047823
deltaT = 1.299247646360614e-05
diagonal:  Solving for rho, Initial residual = 0, Final residual = 0, No Iterations 0
diagonal:  Solving for rhoUx, Initial residual = 0, Final residual = 0, No Iterations 0
diagonal:  Solving for rhoE, Initial residual = 0, Final residual = 0, No Iterations 0
Mean and max Courant Numbers = 0.9023955994459082 0.9027771844816063
deltaT = 1.299247646360614e-05
diagonal:  Solving for rho, Initial residual = 0, Final residual = 0, No Iterations 0
diagonal:  Solving for rhoUx, Initial residual = 0, Final residual = 0, No Iterations 0
diagonal:  Solving for rhoE, Initial residual = 0, Final residual = 0, No Iterations 0
Time = 0.000103519

ExecutionTime = 0.08 s  ClockTime = 0 s

fieldAverage fieldAverage write:
    Calculating averages

Mean and max Courant Numbers = 0.902395947490422 0.902776292668457
deltaT = 1.299247646360614e-05
diagonal:  Solving for rho, Initial residual = 0, Final residual = 0, No Iterations 0
diagonal:  Solving for rhoUx, Initial residual = 0, Final residual = 0, No Iterations 0
diagonal:  Solving for rhoE, Initial residual = 0, Final residual = 0, No Iterations 0
Mean and max Courant Numbers = 0.9023960167875771 0.9027759468676309
deltaT = 1.299247646360614e-05
diagonal:  Solving for rho, Initial residual = 0, Final residual = 0, No Iterations 0
diagonal:  Solving for rhoUx, Initial residual = 0, Final residual = 0, No Iterations 0
diagonal:  Solving for rhoE, Initial residual = 0, Final residual = 0, No Iterations 0
Mean and max Courant Numbers = 0.9023961099986313 0.9027729479444319
deltaT = 1.299247646360614e-05
diagonal:  Solving for rho, Initial residual = 0, Final residual = 0, No Iterations 0
diagonal:  Solving for rhoUx, Initial residual = 0, Final residual = 0, No Iterations 0
diagonal:  Solving for rhoE, Initial residual = 0, Final residual = 0, No Iterations 0
Mean and max Courant Numbers = 0.9023962493933937 0.902772727989925
deltaT = 1.299247646360614e-05
diagonal:  Solving for rho, Initial residual = 0, Final residual = 0, No Iterations 0
diagonal:  Solving for rhoUx, Initial residual = 0, Final residual = 0, No Iterations 0
diagonal:  Solving for rhoE, Initial residual = 0, Final residual = 0, No Iterations 0
Time = 0.000116512

ExecutionTime = 0.09 s  ClockTime = 0 s

fieldAverage fieldAverage write:
    Calculating averages

Mean and max Courant Numbers = 0.9023965913433856 0.9027715600888362
deltaT = 1.299247646360614e-05
diagonal:  Solving for rho, Initial residual = 0, Final residual = 0, No Iterations 0
diagonal:  Solving for rhoUx, Initial residual = 0, Final residual = 0, No Iterations 0
diagonal:  Solving for rhoE, Initial residual = 0, Final residual = 0, No Iterations 0
Mean and max Courant Numbers = 0.9023966558341959 0.9027704450103518
deltaT = 1.299247646360614e-05
diagonal:  Solving for rho, Initial residual = 0, Final residual = 0, No Iterations 0
diagonal:  Solving for rhoUx, Initial residual = 0, Final residual = 0, No Iterations 0
diagonal:  Solving for rhoE, Initial residual = 0, Final residual = 0, No Iterations 0
Mean and max Courant Numbers = 0.9023967354482512 0.9027693249139301
deltaT = 1.299247646360614e-05
diagonal:  Solving for rho, Initial residual = 0, Final residual = 0, No Iterations 0
diagonal:  Solving for rhoUx, Initial residual = 0, Final residual = 0, No Iterations 0
diagonal:  Solving for rhoE, Initial residual = 0, Final residual = 0, No Iterations 0
Mean and max Courant Numbers = 0.9023968554682155 0.9027681450431556
deltaT = 1.299247646360614e-05
diagonal:  Solving for rho, Initial residual = 0, Final residual = 0, No Iterations 0
diagonal:  Solving for rhoUx, Initial residual = 0, Final residual = 0, No Iterations 0
diagonal:  Solving for rhoE, Initial residual = 0, Final residual = 0, No Iterations 0
Time = 0.000129504

ExecutionTime = 0.09 s  ClockTime = 0 s

fieldAverage fieldAverage write:
    Calculating averages

Mean and max Courant Numbers = 0.9023971596019463 0.9027691049953989
deltaT = 1.299247646360614e-05
diagonal:  Solving for rho, Initial residual = 0, Final residual = 0, No Iterations 0
diagonal:  Solving for rhoUx, Initial residual = 0, Final residual = 0, No Iterations 0
diagonal:  Solving for rhoE, Initial residual = 0, Final residual = 0, No Iterations 0
Mean and max Courant Numbers = 0.9023972128184299 0.9027683214057921
deltaT = 1.299247646360614e-05
diagonal:  Solving for rho, Initial residual = 0, Final residual = 0, No Iterations 0
diagonal:  Solving for rhoUx, Initial residual = 0, Final residual = 0, No Iterations 0
diagonal:  Solving for rhoE, Initial residual = 0, Final residual = 0, No Iterations 0
Mean and max Courant Numbers = 0.9023972685659649 0.9027661571504736
deltaT = 1.299247646360614e-05
diagonal:  Solving for rho, Initial residual = 0, Final residual = 0, No Iterations 0
diagonal:  Solving for rhoUx, Initial residual = 0, Final residual = 0, No Iterations 0
diagonal:  Solving for rhoE, Initial residual = 0, Final residual = 0, No Iterations 0
Mean and max Courant Numbers = 0.9023973692821964 0.9027652392532504
deltaT = 1.299247646360614e-05
diagonal:  Solving for rho, Initial residual = 0, Final residual = 0, No Iterations 0
diagonal:  Solving for rhoUx, Initial residual = 0, Final residual = 0, No Iterations 0
diagonal:  Solving for rhoE, Initial residual = 0, Final residual = 0, No Iterations 0
Time = 0.000142497

ExecutionTime = 0.09 s  ClockTime = 0 s

fieldAverage fieldAverage write:
    Calculating averages

Mean and max Courant Numbers = 0.902397623609254 0.9027658630268282
deltaT = 1.299247646360614e-05
diagonal:  Solving for rho, Initial residual = 0, Final residual = 0, No Iterations 0
diagonal:  Solving for rhoUx, Initial residual = 0, Final residual = 0, No Iterations 0
diagonal:  Solving for rhoE, Initial residual = 0, Final residual = 0, No Iterations 0
Mean and max Courant Numbers = 0.9023976526158894 0.902765748675903
deltaT = 1.299247646360614e-05
diagonal:  Solving for rho, Initial residual = 0, Final residual = 0, No Iterations 0
diagonal:  Solving for rhoUx, Initial residual = 0, Final residual = 0, No Iterations 0
diagonal:  Solving for rhoE, Initial residual = 0, Final residual = 0, No Iterations 0
Mean and max Courant Numbers = 0.9023976849057804 0.9027656332730076
deltaT = 1.299247646360614e-05
diagonal:  Solving for rho, Initial residual = 0, Final residual = 0, No Iterations 0
diagonal:  Solving for rhoUx, Initial residual = 0, Final residual = 0, No Iterations 0
diagonal:  Solving for rhoE, Initial residual = 0, Final residual = 0, No Iterations 0
Mean and max Courant Numbers = 0.9023977528428642 0.9027647009947486
deltaT = 1.299247646360614e-05
diagonal:  Solving for rho, Initial residual = 0, Final residual = 0, No Iterations 0
diagonal:  Solving for rhoUx, Initial residual = 0, Final residual = 0, No Iterations 0
diagonal:  Solving for rhoE, Initial residual = 0, Final residual = 0, No Iterations 0
Time = 0.000155489

ExecutionTime = 0.1 s  ClockTime = 0 s

fieldAverage fieldAverage write:
    Calculating averages

Mean and max Courant Numbers = 0.9023979337555992 0.9027653737684711
deltaT = 1.299247646360614e-05
diagonal:  Solving for rho, Initial residual = 0, Final residual = 0, No Iterations 0
diagonal:  Solving for rhoUx, Initial residual = 0, Final residual = 0, No Iterations 0
diagonal:  Solving for rhoE, Initial residual = 0, Final residual = 0, No Iterations 0
Mean and max Courant Numbers = 0.9023979488665231 0.9027647363312662
deltaT = 1.299247646360614e-05
diagonal:  Solving for rho, Initial residual = 0, Final residual = 0, No Iterations 0
diagonal:  Solving for rhoUx, Initial residual = 0, Final residual = 0, No Iterations 0
diagonal:  Solving for rhoE, Initial residual = 0, Final residual = 0, No Iterations 0
Mean and max Courant Numbers = 0.9023979520094503 0.9027638229323626
deltaT = 1.299247646360614e-05
diagonal:  Solving for rho, Initial residual = 0, Final residual = 0, No Iterations 0
diagonal:  Solving for rhoUx, Initial residual = 0, Final residual = 0, No Iterations 0
diagonal:  Solving for rhoE, Initial residual = 0, Final residual = 0, No Iterations 0
Mean and max Courant Numbers = 0.9023979887137114 0.9027632082397653
deltaT = 1.299247646360614e-05
diagonal:  Solving for rho, Initial residual = 0, Final residual = 0, No Iterations 0
diagonal:  Solving for rhoUx, Initial residual = 0, Final residual = 0, No Iterations 0
diagonal:  Solving for rhoE, Initial residual = 0, Final residual = 0, No Iterations 0
Time = 0.000168482

ExecutionTime = 0.1 s  ClockTime = 0 s

fieldAverage fieldAverage write:
    Calculating averages

Mean and max Courant Numbers = 0.9023980890042074 0.9027637776150534
deltaT = 1.299247646360614e-05
diagonal:  Solving for rho, Initial residual = 0, Final residual = 0, No Iterations 0
diagonal:  Solving for rhoUx, Initial residual = 0, Final residual = 0, No Iterations 0
diagonal:  Solving for rhoE, Initial residual = 0, Final residual = 0, No Iterations 0
Mean and max Courant Numbers = 0.9023980937230115 0.9027631325840098
deltaT = 1.299247646360614e-05
diagonal:  Solving for rho, Initial residual = 0, Final residual = 0, No Iterations 0
diagonal:  Solving for rhoUx, Initial residual = 0, Final residual = 0, No Iterations 0
diagonal:  Solving for rhoE, Initial residual = 0, Final residual = 0, No Iterations 0
Mean and max Courant Numbers = 0.9023980624387149 0.9027628754424188
deltaT = 1.299247646360614e-05
diagonal:  Solving for rho, Initial residual = 0, Final residual = 0, No Iterations 0
diagonal:  Solving for rhoUx, Initial residual = 0, Final residual = 0, No Iterations 0
diagonal:  Solving for rhoE, Initial residual = 0, Final residual = 0, No Iterations 0
Mean and max Courant Numbers = 0.902398069099566 0.9027630739400291
deltaT = 1.299247646360614e-05
diagonal:  Solving for rho, Initial residual = 0, Final residual = 0, No Iterations 0
diagonal:  Solving for rhoUx, Initial residual = 0, Final residual = 0, No Iterations 0
diagonal:  Solving for rhoE, Initial residual = 0, Final residual = 0, No Iterations 0
Time = 0.000181474

ExecutionTime = 0.11 s  ClockTime = 0 s

fieldAverage fieldAverage write:
    Calculating averages

Mean and max Courant Numbers = 0.9023981290119003 0.9027648134590777
deltaT = 1.299247646360614e-05
diagonal:  Solving for rho, Initial residual = 0, Final residual = 0, No Iterations 0
diagonal:  Solving for rhoUx, Initial residual = 0, Final residual = 0, No Iterations 0
diagonal:  Solving for rhoE, Initial residual = 0, Final residual = 0, No Iterations 0
Mean and max Courant Numbers = 0.9023981217842636 0.902764376579366
deltaT = 1.299247646360614e-05
diagonal:  Solving for rho, Initial residual = 0, Final residual = 0, No Iterations 0
diagonal:  Solving for rhoUx, Initial residual = 0, Final residual = 0, No Iterations 0
diagonal:  Solving for rhoE, Initial residual = 0, Final residual = 0, No Iterations 0
Mean and max Courant Numbers = 0.9023981419573011 0.9027638605806139
deltaT = 1.299247646360614e-05
diagonal:  Solving for rho, Initial residual = 0, Final residual = 0, No Iterations 0
diagonal:  Solving for rhoUx, Initial residual = 0, Final residual = 0, No Iterations 0
diagonal:  Solving for rhoE, Initial residual = 0, Final residual = 0, No Iterations 0
Mean and max Courant Numbers = 0.9023981527411405 0.9027630593626356
deltaT = 1.299247646360614e-05
diagonal:  Solving for rho, Initial residual = 0, Final residual = 0, No Iterations 0
diagonal:  Solving for rhoUx, Initial residual = 0, Final residual = 0, No Iterations 0
diagonal:  Solving for rhoE, Initial residual = 0, Final residual = 0, No Iterations 0
Time = 0.000194466

ExecutionTime = 0.11 s  ClockTime = 0 s

fieldAverage fieldAverage write:
    Calculating averages

Mean and max Courant Numbers = 0.9023982459443086 0.902762802235214
deltaT = 1.299247646360614e-05
diagonal:  Solving for rho, Initial residual = 0, Final residual = 0, No Iterations 0
diagonal:  Solving for rhoUx, Initial residual = 0, Final residual = 0, No Iterations 0
diagonal:  Solving for rhoE, Initial residual = 0, Final residual = 0, No Iterations 0
Mean and max Courant Numbers = 0.9023982500704391 0.902762619468755
deltaT = 1.299247646360614e-05
diagonal:  Solving for rho, Initial residual = 0, Final residual = 0, No Iterations 0
diagonal:  Solving for rhoUx, Initial residual = 0, Final residual = 0, No Iterations 0
diagonal:  Solving for rhoE, Initial residual = 0, Final residual = 0, No Iterations 0
Mean and max Courant Numbers = 0.9023982911706973 0.9027618943680293
deltaT = 1.299247646360614e-05
diagonal:  Solving for rho, Initial residual = 0, Final residual = 0, No Iterations 0
diagonal:  Solving for rhoUx, Initial residual = 0, Final residual = 0, No Iterations 0
diagonal:  Solving for rhoE, Initial residual = 0, Final residual = 0, No Iterations 0
Mean and max Courant Numbers = 0.9023983198319641 0.9027614745881825
deltaT = 1.299247646360614e-05
diagonal:  Solving for rho, Initial residual = 0, Final residual = 0, No Iterations 0
diagonal:  Solving for rhoUx, Initial residual = 0, Final residual = 0, No Iterations 0
diagonal:  Solving for rhoE, Initial residual = 0, Final residual = 0, No Iterations 0
Time = 0.000207459

ExecutionTime = 0.12 s  ClockTime = 0 s

fieldAverage fieldAverage write:
    Calculating averages

Mean and max Courant Numbers = 0.9023984684941452 0.9027629729551343
deltaT = 1.299247646360614e-05
diagonal:  Solving for rho, Initial residual = 0, Final residual = 0, No Iterations 0
diagonal:  Solving for rhoUx, Initial residual = 0, Final residual = 0, No Iterations 0
diagonal:  Solving for rhoE, Initial residual = 0, Final residual = 0, No Iterations 0
Mean and max Courant Numbers = 0.9023984851872751 0.9027625894969584
deltaT = 1.299247646360614e-05
diagonal:  Solving for rho, Initial residual = 0, Final residual = 0, No Iterations 0
diagonal:  Solving for rhoUx, Initial residual = 0, Final residual = 0, No Iterations 0
diagonal:  Solving for rhoE, Initial residual = 0, Final residual = 0, No Iterations 0
Mean and max Courant Numbers = 0.9023985361843615 0.9027621818722577
deltaT = 1.299247646360614e-05
diagonal:  Solving for rho, Initial residual = 0, Final residual = 0, No Iterations 0
diagonal:  Solving for rhoUx, Initial residual = 0, Final residual = 0, No Iterations 0
diagonal:  Solving for rhoE, Initial residual = 0, Final residual = 0, No Iterations 0
Mean and max Courant Numbers = 0.9023986004048647 0.9027620635397212
deltaT = 1.299247646360614e-05
diagonal:  Solving for rho, Initial residual = 0, Final residual = 0, No Iterations 0
diagonal:  Solving for rhoUx, Initial residual = 0, Final residual = 0, No Iterations 0
diagonal:  Solving for rhoE, Initial residual = 0, Final residual = 0, No Iterations 0
Time = 0.000220451

ExecutionTime = 0.12 s  ClockTime = 0 s

fieldAverage fieldAverage write:
    Calculating averages

Mean and max Courant Numbers = 0.9023988114637397 0.9027617570405873
deltaT = 1.299247646360614e-05
diagonal:  Solving for rho, Initial residual = 0, Final residual = 0, No Iterations 0
diagonal:  Solving for rhoUx, Initial residual = 0, Final residual = 0, No Iterations 0
diagonal:  Solving for rhoE, Initial residual = 0, Final residual = 0, No Iterations 0
Mean and max Courant Numbers = 0.9023988333521854 0.9027618587709486
deltaT = 1.299247646360614e-05
diagonal:  Solving for rho, Initial residual = 0, Final residual = 0, No Iterations 0
diagonal:  Solving for rhoUx, Initial residual = 0, Final residual = 0, No Iterations 0
diagonal:  Solving for rhoE, Initial residual = 0, Final residual = 0, No Iterations 0
Mean and max Courant Numbers = 0.9023988782275314 0.9027614784094555
deltaT = 1.299247646360614e-05
diagonal:  Solving for rho, Initial residual = 0, Final residual = 0, No Iterations 0
diagonal:  Solving for rhoUx, Initial residual = 0, Final residual = 0, No Iterations 0
diagonal:  Solving for rhoE, Initial residual = 0, Final residual = 0, No Iterations 0
Mean and max Courant Numbers = 0.9023989560713346 0.9027609955302927
deltaT = 1.299247646360614e-05
diagonal:  Solving for rho, Initial residual = 0, Final residual = 0, No Iterations 0
diagonal:  Solving for rhoUx, Initial residual = 0, Final residual = 0, No Iterations 0
diagonal:  Solving for rhoE, Initial residual = 0, Final residual = 0, No Iterations 0
Time = 0.000233444

ExecutionTime = 0.12 s  ClockTime = 0 s

fieldAverage fieldAverage write:
    Calculating averages

Mean and max Courant Numbers = 0.9023992115603278 0.902762516510198
deltaT = 1.299247646360614e-05
diagonal:  Solving for rho, Initial residual = 0, Final residual = 0, No Iterations 0
diagonal:  Solving for rhoUx, Initial residual = 0, Final residual = 0, No Iterations 0
diagonal:  Solving for rhoE, Initial residual = 0, Final residual = 0, No Iterations 0
Mean and max Courant Numbers = 0.9023992323839595 0.9027616602626226
deltaT = 1.299247646360614e-05
diagonal:  Solving for rho, Initial residual = 0, Final residual = 0, No Iterations 0
diagonal:  Solving for rhoUx, Initial residual = 0, Final residual = 0, No Iterations 0
diagonal:  Solving for rhoE, Initial residual = 0, Final residual = 0, No Iterations 0
Mean and max Courant Numbers = 0.9023992803834512 0.9027609480030772
deltaT = 1.299247646360614e-05
diagonal:  Solving for rho, Initial residual = 0, Final residual = 0, No Iterations 0
diagonal:  Solving for rhoUx, Initial residual = 0, Final residual = 0, No Iterations 0
diagonal:  Solving for rhoE, Initial residual = 0, Final residual = 0, No Iterations 0
Mean and max Courant Numbers = 0.90239937170187 0.9027607865192631
deltaT = 1.299247646360614e-05
diagonal:  Solving for rho, Initial residual = 0, Final residual = 0, No Iterations 0
diagonal:  Solving for rhoUx, Initial residual = 0, Final residual = 0, No Iterations 0
diagonal:  Solving for rhoE, Initial residual = 0, Final residual = 0, No Iterations 0
Time = 0.000246436

ExecutionTime = 0.13 s  ClockTime = 0 s

fieldAverage fieldAverage write:
    Calculating averages

Mean and max Courant Numbers = 0.902399633992152 0.902760591048546
deltaT = 1.299247646360614e-05
diagonal:  Solving for rho, Initial residual = 0, Final residual = 0, No Iterations 0
diagonal:  Solving for rhoUx, Initial residual = 0, Final residual = 0, No Iterations 0
diagonal:  Solving for rhoE, Initial residual = 0, Final residual = 0, No Iterations 0
Mean and max Courant Numbers = 0.9023996729046813 0.902760503147799
deltaT = 1.299247646360614e-05
diagonal:  Solving for rho, Initial residual = 0, Final residual = 0, No Iterations 0
diagonal:  Solving for rhoUx, Initial residual = 0, Final residual = 0, No Iterations 0
diagonal:  Solving for rhoE, Initial residual = 0, Final residual = 0, No Iterations 0
Mean and max Courant Numbers = 0.9023997323732585 0.9027602772418059
deltaT = 1.299247646360614e-05
diagonal:  Solving for rho, Initial residual = 0, Final residual = 0, No Iterations 0
diagonal:  Solving for rhoUx, Initial residual = 0, Final residual = 0, No Iterations 0
diagonal:  Solving for rhoE, Initial residual = 0, Final residual = 0, No Iterations 0
Mean and max Courant Numbers = 0.9023998082689446 0.9027600832000863
deltaT = 1.299247646360614e-05
diagonal:  Solving for rho, Initial residual = 0, Final residual = 0, No Iterations 0
diagonal:  Solving for rhoUx, Initial residual = 0, Final residual = 0, No Iterations 0
diagonal:  Solving for rhoE, Initial residual = 0, Final residual = 0, No Iterations 0
Time = 0.000259429

ExecutionTime = 0.13 s  ClockTime = 0 s

fieldAverage fieldAverage write:
    Calculating averages

Mean and max Courant Numbers = 0.902400101900461 0.9027594089304188
deltaT = 1.299247646360614e-05
diagonal:  Solving for rho, Initial residual = 0, Final residual = 0, No Iterations 0
diagonal:  Solving for rhoUx, Initial residual = 0, Final residual = 0, No Iterations 0
diagonal:  Solving for rhoE, Initial residual = 0, Final residual = 0, No Iterations 0
Mean and max Courant Numbers = 0.9024001409400594 0.9027593950828193
deltaT = 1.299247646360614e-05
diagonal:  Solving for rho, Initial residual = 0, Final residual = 0, No Iterations 0
diagonal:  Solving for rhoUx, Initial residual = 0, Final residual = 0, No Iterations 0
diagonal:  Solving for rhoE, Initial residual = 0, Final residual = 0, No Iterations 0
Mean and max Courant Numbers = 0.9024001889442956 0.9027593348426942
deltaT = 1.299247646360614e-05
diagonal:  Solving for rho, Initial residual = 0, Final residual = 0, No Iterations 0
diagonal:  Solving for rhoUx, Initial residual = 0, Final residual = 0, No Iterations 0
diagonal:  Solving for rhoE, Initial residual = 0, Final residual = 0, No Iterations 0
Mean and max Courant Numbers = 0.9024002613536921 0.9027592332831706
deltaT = 1.299247646360614e-05
diagonal:  Solving for rho, Initial residual = 0, Final residual = 0, No Iterations 0
diagonal:  Solving for rhoUx, Initial residual = 0, Final residual = 0, No Iterations 0
diagonal:  Solving for rhoE, Initial residual = 0, Final residual = 0, No Iterations 0
Time = 0.000272421

ExecutionTime = 0.13 s  ClockTime = 0 s

fieldAverage fieldAverage write:
    Calculating averages

Mean and max Courant Numbers = 0.9024005404272261 0.902759640739508
deltaT = 1.299247646360614e-05
diagonal:  Solving for rho, Initial residual = 0, Final residual = 0, No Iterations 0
diagonal:  Solving for rhoUx, Initial residual = 0, Final residual = 0, No Iterations 0
diagonal:  Solving for rhoE, Initial residual = 0, Final residual = 0, No Iterations 0
Mean and max Courant Numbers = 0.9024005690106951 0.9027595325417863
deltaT = 1.299247646360614e-05
diagonal:  Solving for rho, Initial residual = 0, Final residual = 0, No Iterations 0
diagonal:  Solving for rhoUx, Initial residual = 0, Final residual = 0, No Iterations 0
diagonal:  Solving for rhoE, Initial residual = 0, Final residual = 0, No Iterations 0
Mean and max Courant Numbers = 0.9024006297446326 0.9027594507063925
deltaT = 1.299247646360614e-05
diagonal:  Solving for rho, Initial residual = 0, Final residual = 0, No Iterations 0
diagonal:  Solving for rhoUx, Initial residual = 0, Final residual = 0, No Iterations 0
diagonal:  Solving for rhoE, Initial residual = 0, Final residual = 0, No Iterations 0
Mean and max Courant Numbers = 0.9024007032360809 0.9027592097883701
deltaT = 1.299247646360614e-05
diagonal:  Solving for rho, Initial residual = 0, Final residual = 0, No Iterations 0
diagonal:  Solving for rhoUx, Initial residual = 0, Final residual = 0, No Iterations 0
diagonal:  Solving for rhoE, Initial residual = 0, Final residual = 0, No Iterations 0
Time = 0.000285414

ExecutionTime = 0.14 s  ClockTime = 0 s

fieldAverage fieldAverage write:
    Calculating averages

Mean and max Courant Numbers = 0.9024009779992141 0.9027594782917372
deltaT = 1.299247646360614e-05
diagonal:  Solving for rho, Initial residual = 0, Final residual = 0, No Iterations 0
diagonal:  Solving for rhoUx, Initial residual = 0, Final residual = 0, No Iterations 0
diagonal:  Solving for rhoE, Initial residual = 0, Final residual = 0, No Iterations 0
Mean and max Courant Numbers = 0.9024010004337694 0.9027592977641882
deltaT = 1.299247646360614e-05
diagonal:  Solving for rho, Initial residual = 0, Final residual = 0, No Iterations 0
diagonal:  Solving for rhoUx, Initial residual = 0, Final residual = 0, No Iterations 0
diagonal:  Solving for rhoE, Initial residual = 0, Final residual = 0, No Iterations 0
Mean and max Courant Numbers = 0.9024010436652024 0.9027586619730616
deltaT = 1.299247646360614e-05
diagonal:  Solving for rho, Initial residual = 0, Final residual = 0, No Iterations 0
diagonal:  Solving for rhoUx, Initial residual = 0, Final residual = 0, No Iterations 0
diagonal:  Solving for rhoE, Initial residual = 0, Final residual = 0, No Iterations 0
Mean and max Courant Numbers = 0.9024011027195162 0.9027584758220015
deltaT = 1.299247646360614e-05
diagonal:  Solving for rho, Initial residual = 0, Final residual = 0, No Iterations 0
diagonal:  Solving for rhoUx, Initial residual = 0, Final residual = 0, No Iterations 0
diagonal:  Solving for rhoE, Initial residual = 0, Final residual = 0, No Iterations 0
Time = 0.000298406

ExecutionTime = 0.14 s  ClockTime = 0 s

fieldAverage fieldAverage write:
    Calculating averages

Mean and max Courant Numbers = 0.9024013509415538 0.9027591603530122
deltaT = 1.299247646360614e-05
diagonal:  Solving for rho, Initial residual = 0, Final residual = 0, No Iterations 0
diagonal:  Solving for rhoUx, Initial residual = 0, Final residual = 0, No Iterations 0
diagonal:  Solving for rhoE, Initial residual = 0, Final residual = 0, No Iterations 0
Mean and max Courant Numbers = 0.9024013656128773 0.9027589472230588
deltaT = 1.299247646360614e-05
diagonal:  Solving for rho, Initial residual = 0, Final residual = 0, No Iterations 0
diagonal:  Solving for rhoUx, Initial residual = 0, Final residual = 0, No Iterations 0
diagonal:  Solving for rhoE, Initial residual = 0, Final residual = 0, No Iterations 0
Mean and max Courant Numbers = 0.9024014016444978 0.9027588399015728
deltaT = 1.299247646360614e-05
diagonal:  Solving for rho, Initial residual = 0, Final residual = 0, No Iterations 0
diagonal:  Solving for rhoUx, Initial residual = 0, Final residual = 0, No Iterations 0
diagonal:  Solving for rhoE, Initial residual = 0, Final residual = 0, No Iterations 0
Mean and max Courant Numbers = 0.9024014350072954 0.9027588015075382
deltaT = 1.299247646360614e-05
diagonal:  Solving for rho, Initial residual = 0, Final residual = 0, No Iterations 0
diagonal:  Solving for rhoUx, Initial residual = 0, Final residual = 0, No Iterations 0
diagonal:  Solving for rhoE, Initial residual = 0, Final residual = 0, No Iterations 0
Time = 0.000311399

ExecutionTime = 0.15 s  ClockTime = 0 s

fieldAverage fieldAverage write:
    Calculating averages

Mean and max Courant Numbers = 0.9024016695346423 0.9027592625160229
deltaT = 1.299247646360614e-05
diagonal:  Solving for rho, Initial residual = 0, Final residual = 0, No Iterations 0
diagonal:  Solving for rhoUx, Initial residual = 0, Final residual = 0, No Iterations 0
diagonal:  Solving for rhoE, Initial residual = 0, Final residual = 0, No Iterations 0
Mean and max Courant Numbers = 0.9024016818646206 0.9027590905560222
deltaT = 1.299247646360614e-05
diagonal:  Solving for rho, Initial residual = 0, Final residual = 0, No Iterations 0
diagonal:  Solving for rhoUx, Initial residual = 0, Final residual = 0, No Iterations 0
diagonal:  Solving for rhoE, Initial residual = 0, Final residual = 0, No Iterations 0
Mean and max Courant Numbers = 0.9024017036101755 0.9027588683320141
deltaT = 1.299247646360614e-05
diagonal:  Solving for rho, Initial residual = 0, Final residual = 0, No Iterations 0
diagonal:  Solving for rhoUx, Initial residual = 0, Final residual = 0, No Iterations 0
diagonal:  Solving for rhoE, Initial residual = 0, Final residual = 0, No Iterations 0
Mean and max Courant Numbers = 0.9024016706573443 0.9027580454578791
deltaT = 1.299247646360614e-05
diagonal:  Solving for rho, Initial residual = 0, Final residual = 0, No Iterations 0
diagonal:  Solving for rhoUx, Initial residual = 0, Final residual = 0, No Iterations 0
diagonal:  Solving for rhoE, Initial residual = 0, Final residual = 0, No Iterations 0
Time = 0.000324391

ExecutionTime = 0.15 s  ClockTime = 0 s

fieldAverage fieldAverage write:
    Calculating averages

Mean and max Courant Numbers = 0.9024019112593896 0.9027579762517035
deltaT = 1.299247646360614e-05
diagonal:  Solving for rho, Initial residual = 0, Final residual = 0, No Iterations 0
diagonal:  Solving for rhoUx, Initial residual = 0, Final residual = 0, No Iterations 0
diagonal:  Solving for rhoE, Initial residual = 0, Final residual = 0, No Iterations 0
Mean and max Courant Numbers = 0.9024018914029062 0.902757759205422
deltaT = 1.299247646360614e-05
diagonal:  Solving for rho, Initial residual = 0, Final residual = 0, No Iterations 0
diagonal:  Solving for rhoUx, Initial residual = 0, Final residual = 0, No Iterations 0
diagonal:  Solving for rhoE, Initial residual = 0, Final residual = 0, No Iterations 0
Mean and max Courant Numbers = 0.9024018733688273 0.9027576673172963
deltaT = 1.299247646360614e-05
diagonal:  Solving for rho, Initial residual = 0, Final residual = 0, No Iterations 0
diagonal:  Solving for rhoUx, Initial residual = 0, Final residual = 0, No Iterations 0
diagonal:  Solving for rhoE, Initial residual = 0, Final residual = 0, No Iterations 0
Mean and max Courant Numbers = 0.9024018248535829 0.902757781092709
deltaT = 1.299247646360614e-05
diagonal:  Solving for rho, Initial residual = 0, Final residual = 0, No Iterations 0
diagonal:  Solving for rhoUx, Initial residual = 0, Final residual = 0, No Iterations 0
diagonal:  Solving for rhoE, Initial residual = 0, Final residual = 0, No Iterations 0
Time = 0.000337384

ExecutionTime = 0.15 s  ClockTime = 0 s

fieldAverage fieldAverage write:
    Calculating averages

Mean and max Courant Numbers = 0.9024019576811064 0.9027585076966261
deltaT = 1.299247646360614e-05
diagonal:  Solving for rho, Initial residual = 0, Final residual = 0, No Iterations 0
diagonal:  Solving for rhoUx, Initial residual = 0, Final residual = 0, No Iterations 0
diagonal:  Solving for rhoE, Initial residual = 0, Final residual = 0, No Iterations 0
Mean and max Courant Numbers = 0.9024019348740778 0.9027582608382979
deltaT = 1.299247646360614e-05
diagonal:  Solving for rho, Initial residual = 0, Final residual = 0, No Iterations 0
diagonal:  Solving for rhoUx, Initial residual = 0, Final residual = 0, No Iterations 0
diagonal:  Solving for rhoE, Initial residual = 0, Final residual = 0, No Iterations 0
Mean and max Courant Numbers = 0.90240191969157 0.9027580590597775
deltaT = 1.299247646360614e-05
diagonal:  Solving for rho, Initial residual = 0, Final residual = 0, No Iterations 0
diagonal:  Solving for rhoUx, Initial residual = 0, Final residual = 0, No Iterations 0
diagonal:  Solving for rhoE, Initial residual = 0, Final residual = 0, No Iterations 0
Mean and max Courant Numbers = 0.9024018612038581 0.9027579064770435
deltaT = 1.299247646360614e-05
diagonal:  Solving for rho, Initial residual = 0, Final residual = 0, No Iterations 0
diagonal:  Solving for rhoUx, Initial residual = 0, Final residual = 0, No Iterations 0
diagonal:  Solving for rhoE, Initial residual = 0, Final residual = 0, No Iterations 0
Time = 0.000350376

ExecutionTime = 0.16 s  ClockTime = 0 s

fieldAverage fieldAverage write:
    Calculating averages

Mean and max Courant Numbers = 0.9024020075359916 0.902757741015925
deltaT = 1.299247646360614e-05
diagonal:  Solving for rho, Initial residual = 0, Final residual = 0, No Iterations 0
diagonal:  Solving for rhoUx, Initial residual = 0, Final residual = 0, No Iterations 0
diagonal:  Solving for rhoE, Initial residual = 0, Final residual = 0, No Iterations 0
Mean and max Courant Numbers = 0.9024019773372219 0.9027576359586336
deltaT = 1.299247646360614e-05
diagonal:  Solving for rho, Initial residual = 0, Final residual = 0, No Iterations 0
diagonal:  Solving for rhoUx, Initial residual = 0, Final residual = 0, No Iterations 0
diagonal:  Solving for rhoE, Initial residual = 0, Final residual = 0, No Iterations 0
Mean and max Courant Numbers = 0.9024020124701269 0.902757289821038
deltaT = 1.299247646360614e-05
diagonal:  Solving for rho, Initial residual = 0, Final residual = 0, No Iterations 0
diagonal:  Solving for rhoUx, Initial residual = 0, Final residual = 0, No Iterations 0
diagonal:  Solving for rhoE, Initial residual = 0, Final residual = 0, No Iterations 0
Mean and max Courant Numbers = 0.9024019900564421 0.902756883652032
deltaT = 1.299247646360614e-05
diagonal:  Solving for rho, Initial residual = 0, Final residual = 0, No Iterations 0
diagonal:  Solving for rhoUx, Initial residual = 0, Final residual = 0, No Iterations 0
diagonal:  Solving for rhoE, Initial residual = 0, Final residual = 0, No Iterations 0
Time = 0.000363369

ExecutionTime = 0.16 s  ClockTime = 0 s

fieldAverage fieldAverage write:
    Calculating averages

Mean and max Courant Numbers = 0.9024021979520649 0.9027578396824845
deltaT = 1.299247646360614e-05
diagonal:  Solving for rho, Initial residual = 0, Final residual = 0, No Iterations 0
diagonal:  Solving for rhoUx, Initial residual = 0, Final residual = 0, No Iterations 0
diagonal:  Solving for rhoE, Initial residual = 0, Final residual = 0, No Iterations 0
Mean and max Courant Numbers = 0.9024021998170404 0.9027576147298249
deltaT = 1.299247646360614e-05
diagonal:  Solving for rho, Initial residual = 0, Final residual = 0, No Iterations 0
diagonal:  Solving for rhoUx, Initial residual = 0, Final residual = 0, No Iterations 0
diagonal:  Solving for rhoE, Initial residual = 0, Final residual = 0, No Iterations 0
Mean and max Courant Numbers = 0.902402253780795 0.9027573391365297
deltaT = 1.299247646360614e-05
diagonal:  Solving for rho, Initial residual = 0, Final residual = 0, No Iterations 0
diagonal:  Solving for rhoUx, Initial residual = 0, Final residual = 0, No Iterations 0
diagonal:  Solving for rhoE, Initial residual = 0, Final residual = 0, No Iterations 0
Mean and max Courant Numbers = 0.9024022692121746 0.9027571809405909
deltaT = 1.299247646360614e-05
diagonal:  Solving for rho, Initial residual = 0, Final residual = 0, No Iterations 0
diagonal:  Solving for rhoUx, Initial residual = 0, Final residual = 0, No Iterations 0
diagonal:  Solving for rhoE, Initial residual = 0, Final residual = 0, No Iterations 0
Time = 0.000376361

ExecutionTime = 0.18 s  ClockTime = 0 s

fieldAverage fieldAverage write:
    Calculating averages

Mean and max Courant Numbers = 0.9024025668594675 0.9027568114612043
deltaT = 1.299247646360614e-05
diagonal:  Solving for rho, Initial residual = 0, Final residual = 0, No Iterations 0
diagonal:  Solving for rhoUx, Initial residual = 0, Final residual = 0, No Iterations 0
diagonal:  Solving for rhoE, Initial residual = 0, Final residual = 0, No Iterations 0
Mean and max Courant Numbers = 0.9024025768183166 0.9027568294770605
deltaT = 1.299247646360614e-05
diagonal:  Solving for rho, Initial residual = 0, Final residual = 0, No Iterations 0
diagonal:  Solving for rhoUx, Initial residual = 0, Final residual = 0, No Iterations 0
diagonal:  Solving for rhoE, Initial residual = 0, Final residual = 0, No Iterations 0
Mean and max Courant Numbers = 0.9024026457201498 0.9027567135073908
deltaT = 1.299247646360614e-05
diagonal:  Solving for rho, Initial residual = 0, Final residual = 0, No Iterations 0
diagonal:  Solving for rhoUx, Initial residual = 0, Final residual = 0, No Iterations 0
diagonal:  Solving for rhoE, Initial residual = 0, Final residual = 0, No Iterations 0
Mean and max Courant Numbers = 0.9024026920024039 0.9027561135957359
deltaT = 1.299247646360614e-05
diagonal:  Solving for rho, Initial residual = 0, Final residual = 0, No Iterations 0
diagonal:  Solving for rhoUx, Initial residual = 0, Final residual = 0, No Iterations 0
diagonal:  Solving for rhoE, Initial residual = 0, Final residual = 0, No Iterations 0
Time = 0.000389354

ExecutionTime = 0.18 s  ClockTime = 0 s

fieldAverage fieldAverage write:
    Calculating averages

Mean and max Courant Numbers = 0.9024030489595078 0.9027572034160977
deltaT = 1.299247646360614e-05
diagonal:  Solving for rho, Initial residual = 0, Final residual = 0, No Iterations 0
diagonal:  Solving for rhoUx, Initial residual = 0, Final residual = 0, No Iterations 0
diagonal:  Solving for rhoE, Initial residual = 0, Final residual = 0, No Iterations 0
Mean and max Courant Numbers = 0.9024030709041815 0.9027569041261084
deltaT = 1.299247646360614e-05
diagonal:  Solving for rho, Initial residual = 0, Final residual = 0, No Iterations 0
diagonal:  Solving for rhoUx, Initial residual = 0, Final residual = 0, No Iterations 0
diagonal:  Solving for rhoE, Initial residual = 0, Final residual = 0, No Iterations 0
Mean and max Courant Numbers = 0.902403161395667 0.9027564122416002
deltaT = 1.299247646360614e-05
diagonal:  Solving for rho, Initial residual = 0, Final residual = 0, No Iterations 0
diagonal:  Solving for rhoUx, Initial residual = 0, Final residual = 0, No Iterations 0
diagonal:  Solving for rhoE, Initial residual = 0, Final residual = 0, No Iterations 0
Mean and max Courant Numbers = 0.9024032265022467 0.9027564489638932
deltaT = 1.299247646360614e-05
diagonal:  Solving for rho, Initial residual = 0, Final residual = 0, No Iterations 0
diagonal:  Solving for rhoUx, Initial residual = 0, Final residual = 0, No Iterations 0
diagonal:  Solving for rhoE, Initial residual = 0, Final residual = 0, No Iterations 0
Time = 0.000402346

ExecutionTime = 0.18 s  ClockTime = 0 s

fieldAverage fieldAverage write:
    Calculating averages

Mean and max Courant Numbers = 0.9024036257932975 0.9027560323267528
deltaT = 1.299247646360614e-05
diagonal:  Solving for rho, Initial residual = 0, Final residual = 0, No Iterations 0
diagonal:  Solving for rhoUx, Initial residual = 0, Final residual = 0, No Iterations 0
diagonal:  Solving for rhoE, Initial residual = 0, Final residual = 0, No Iterations 0
Mean and max Courant Numbers = 0.9024036555845164 0.9027560583445412
deltaT = 1.299247646360614e-05
diagonal:  Solving for rho, Initial residual = 0, Final residual = 0, No Iterations 0
diagonal:  Solving for rhoUx, Initial residual = 0, Final residual = 0, No Iterations 0
diagonal:  Solving for rhoE, Initial residual = 0, Final residual = 0, No Iterations 0
Mean and max Courant Numbers = 0.9024037589136412 0.9027559578350942
deltaT = 1.299247646360614e-05
diagonal:  Solving for rho, Initial residual = 0, Final residual = 0, No Iterations 0
diagonal:  Solving for rhoUx, Initial residual = 0, Final residual = 0, No Iterations 0
diagonal:  Solving for rhoE, Initial residual = 0, Final residual = 0, No Iterations 0
Mean and max Courant Numbers = 0.9024038556011614 0.9027557218118298
deltaT = 1.299247646360614e-05
diagonal:  Solving for rho, Initial residual = 0, Final residual = 0, No Iterations 0
diagonal:  Solving for rhoUx, Initial residual = 0, Final residual = 0, No Iterations 0
diagonal:  Solving for rhoE, Initial residual = 0, Final residual = 0, No Iterations 0
Time = 0.000415339

ExecutionTime = 0.19 s  ClockTime = 0 s

fieldAverage fieldAverage write:
    Calculating averages

Mean and max Courant Numbers = 0.9024042793746874 0.9027636683905692
deltaT = 1.299247646360614e-05
diagonal:  Solving for rho, Initial residual = 0, Final residual = 0, No Iterations 0
diagonal:  Solving for rhoUx, Initial residual = 0, Final residual = 0, No Iterations 0
diagonal:  Solving for rhoE, Initial residual = 0, Final residual = 0, No Iterations 0
Mean and max Courant Numbers = 0.9024043180570019 0.9027653513483321
deltaT = 1.299247646360614e-05
diagonal:  Solving for rho, Initial residual = 0, Final residual = 0, No Iterations 0
diagonal:  Solving for rhoUx, Initial residual = 0, Final residual = 0, No Iterations 0
diagonal:  Solving for rhoE, Initial residual = 0, Final residual = 0, No Iterations 0
Mean and max Courant Numbers = 0.9024043940784467 0.9027709839348089
deltaT = 1.299247646360614e-05
diagonal:  Solving for rho, Initial residual = 0, Final residual = 0, No Iterations 0
diagonal:  Solving for rhoUx, Initial residual = 0, Final residual = 0, No Iterations 0
diagonal:  Solving for rhoE, Initial residual = 0, Final residual = 0, No Iterations 0
Mean and max Courant Numbers = 0.9024045171276237 0.902772610882949
deltaT = 1.299247646360614e-05
diagonal:  Solving for rho, Initial residual = 0, Final residual = 0, No Iterations 0
diagonal:  Solving for rhoUx, Initial residual = 0, Final residual = 0, No Iterations 0
diagonal:  Solving for rhoE, Initial residual = 0, Final residual = 0, No Iterations 0
Time = 0.000428331

ExecutionTime = 0.19 s  ClockTime = 0 s

fieldAverage fieldAverage write:
    Calculating averages

Mean and max Courant Numbers = 0.9024049399820584 0.9027788792571211
deltaT = 1.299247646360614e-05
diagonal:  Solving for rho, Initial residual = 0, Final residual = 0, No Iterations 0
diagonal:  Solving for rhoUx, Initial residual = 0, Final residual = 0, No Iterations 0
diagonal:  Solving for rhoE, Initial residual = 0, Final residual = 0, No Iterations 0
Mean and max Courant Numbers = 0.902404992519245 0.9027793824735255
deltaT = 1.299247646360614e-05
diagonal:  Solving for rho, Initial residual = 0, Final residual = 0, No Iterations 0
diagonal:  Solving for rhoUx, Initial residual = 0, Final residual = 0, No Iterations 0
diagonal:  Solving for rhoE, Initial residual = 0, Final residual = 0, No Iterations 0
Mean and max Courant Numbers = 0.902405050310833 0.9027768582679202
deltaT = 1.299247646360614e-05
diagonal:  Solving for rho, Initial residual = 0, Final residual = 0, No Iterations 0
diagonal:  Solving for rhoUx, Initial residual = 0, Final residual = 0, No Iterations 0
diagonal:  Solving for rhoE, Initial residual = 0, Final residual = 0, No Iterations 0
Mean and max Courant Numbers = 0.9024051799041527 0.9027754310389114
deltaT = 1.299247646360614e-05
diagonal:  Solving for rho, Initial residual = 0, Final residual = 0, No Iterations 0
diagonal:  Solving for rhoUx, Initial residual = 0, Final residual = 0, No Iterations 0
diagonal:  Solving for rhoE, Initial residual = 0, Final residual = 0, No Iterations 0
Time = 0.000441324

ExecutionTime = 0.19 s  ClockTime = 0 s

fieldAverage fieldAverage write:
    Calculating averages

Mean and max Courant Numbers = 0.9024055894091895 0.9027714657304757
deltaT = 1.299247646360614e-05
diagonal:  Solving for rho, Initial residual = 0, Final residual = 0, No Iterations 0
diagonal:  Solving for rhoUx, Initial residual = 0, Final residual = 0, No Iterations 0
diagonal:  Solving for rhoE, Initial residual = 0, Final residual = 0, No Iterations 0
Mean and max Courant Numbers = 0.9024056420983771 0.902771172124181
deltaT = 1.299247646360614e-05
diagonal:  Solving for rho, Initial residual = 0, Final residual = 0, No Iterations 0
diagonal:  Solving for rhoUx, Initial residual = 0, Final residual = 0, No Iterations 0
diagonal:  Solving for rhoE, Initial residual = 0, Final residual = 0, No Iterations 0
Mean and max Courant Numbers = 0.9024057021670727 0.9027707565937004
deltaT = 1.299247646360614e-05
diagonal:  Solving for rho, Initial residual = 0, Final residual = 0, No Iterations 0
diagonal:  Solving for rhoUx, Initial residual = 0, Final residual = 0, No Iterations 0
diagonal:  Solving for rhoE, Initial residual = 0, Final residual = 0, No Iterations 0
Mean and max Courant Numbers = 0.90240581293448 0.9027699237455137
deltaT = 1.299247646360614e-05
diagonal:  Solving for rho, Initial residual = 0, Final residual = 0, No Iterations 0
diagonal:  Solving for rhoUx, Initial residual = 0, Final residual = 0, No Iterations 0
diagonal:  Solving for rhoE, Initial residual = 0, Final residual = 0, No Iterations 0
Time = 0.000454316

ExecutionTime = 0.2 s  ClockTime = 0 s

fieldAverage fieldAverage write:
    Calculating averages

Mean and max Courant Numbers = 0.9024061970468457 0.9027702429945744
deltaT = 1.299247646360614e-05
diagonal:  Solving for rho, Initial residual = 0, Final residual = 0, No Iterations 0
diagonal:  Solving for rhoUx, Initial residual = 0, Final residual = 0, No Iterations 0
diagonal:  Solving for rhoE, Initial residual = 0, Final residual = 0, No Iterations 0
Mean and max Courant Numbers = 0.9024062495469259 0.9027703230149257
deltaT = 1.299247646360614e-05
diagonal:  Solving for rho, Initial residual = 0, Final residual = 0, No Iterations 0
diagonal:  Solving for rhoUx, Initial residual = 0, Final residual = 0, No Iterations 0
diagonal:  Solving for rhoE, Initial residual = 0, Final residual = 0, No Iterations 0
Mean and max Courant Numbers = 0.9024063049292195 0.9027695662101936
deltaT = 1.299247646360614e-05
diagonal:  Solving for rho, Initial residual = 0, Final residual = 0, No Iterations 0
diagonal:  Solving for rhoUx, Initial residual = 0, Final residual = 0, No Iterations 0
diagonal:  Solving for rhoE, Initial residual = 0, Final residual = 0, No Iterations 0
Mean and max Courant Numbers = 0.9024063858634338 0.9027683897032587
deltaT = 1.299247646360614e-05
diagonal:  Solving for rho, Initial residual = 0, Final residual = 0, No Iterations 0
diagonal:  Solving for rhoUx, Initial residual = 0, Final residual = 0, No Iterations 0
diagonal:  Solving for rhoE, Initial residual = 0, Final residual = 0, No Iterations 0
Time = 0.000467308

ExecutionTime = 0.2 s  ClockTime = 0 s

fieldAverage fieldAverage write:
    Calculating averages

Mean and max Courant Numbers = 0.902406719156118 0.9027678928061605
deltaT = 1.299247646360614e-05
diagonal:  Solving for rho, Initial residual = 0, Final residual = 0, No Iterations 0
diagonal:  Solving for rhoUx, Initial residual = 0, Final residual = 0, No Iterations 0
diagonal:  Solving for rhoE, Initial residual = 0, Final residual = 0, No Iterations 0
Mean and max Courant Numbers = 0.902406755059284 0.9027674648972748
deltaT = 1.299247646360614e-05
diagonal:  Solving for rho, Initial residual = 0, Final residual = 0, No Iterations 0
diagonal:  Solving for rhoUx, Initial residual = 0, Final residual = 0, No Iterations 0
diagonal:  Solving for rhoE, Initial residual = 0, Final residual = 0, No Iterations 0
Mean and max Courant Numbers = 0.9024067965200872 0.9027666323203554
deltaT = 1.299247646360614e-05
diagonal:  Solving for rho, Initial residual = 0, Final residual = 0, No Iterations 0
diagonal:  Solving for rhoUx, Initial residual = 0, Final residual = 0, No Iterations 0
diagonal:  Solving for rhoE, Initial residual = 0, Final residual = 0, No Iterations 0
Mean and max Courant Numbers = 0.9024068661406551 0.9027657573700714
deltaT = 1.299247646360614e-05
diagonal:  Solving for rho, Initial residual = 0, Final residual = 0, No Iterations 0
diagonal:  Solving for rhoUx, Initial residual = 0, Final residual = 0, No Iterations 0
diagonal:  Solving for rhoE, Initial residual = 0, Final residual = 0, No Iterations 0
Time = 0.000480301

ExecutionTime = 0.21 s  ClockTime = 0 s

fieldAverage fieldAverage write:
    Calculating averages

Mean and max Courant Numbers = 0.9024071489474225 0.9027671864633712
deltaT = 1.299247646360615e-05
diagonal:  Solving for rho, Initial residual = 0, Final residual = 0, No Iterations 0
diagonal:  Solving for rhoUx, Initial residual = 0, Final residual = 0, No Iterations 0
diagonal:  Solving for rhoE, Initial residual = 0, Final residual = 0, No Iterations 0
Mean and max Courant Numbers = 0.90240715232437 0.9027665260339248
deltaT = 1.299247646360615e-05
diagonal:  Solving for rho, Initial residual = 0, Final residual = 0, No Iterations 0
diagonal:  Solving for rhoUx, Initial residual = 0, Final residual = 0, No Iterations 0
diagonal:  Solving for rhoE, Initial residual = 0, Final residual = 0, No Iterations 0
Mean and max Courant Numbers = 0.9024071562623972 0.9027659875451667
deltaT = 1.299247646360615e-05
diagonal:  Solving for rho, Initial residual = 0, Final residual = 0, No Iterations 0
diagonal:  Solving for rhoUx, Initial residual = 0, Final residual = 0, No Iterations 0
diagonal:  Solving for rhoE, Initial residual = 0, Final residual = 0, No Iterations 0
Mean and max Courant Numbers = 0.9024072070431358 0.9027658626366047
deltaT = 1.299247646360615e-05
diagonal:  Solving for rho, Initial residual = 0, Final residual = 0, No Iterations 0
diagonal:  Solving for rhoUx, Initial residual = 0, Final residual = 0, No Iterations 0
diagonal:  Solving for rhoE, Initial residual = 0, Final residual = 0, No Iterations 0
Time = 0.000493293

ExecutionTime = 0.21 s  ClockTime = 0 s

fieldAverage fieldAverage write:
    Calculating averages

Mean and max Courant Numbers = 0.9024074065234928 0.9027654219573065
deltaT = 1.299247646360615e-05
diagonal:  Solving for rho, Initial residual = 0, Final residual = 0, No Iterations 0
diagonal:  Solving for rhoUx, Initial residual = 0, Final residual = 0, No Iterations 0
diagonal:  Solving for rhoE, Initial residual = 0, Final residual = 0, No Iterations 0
Mean and max Courant Numbers = 0.902407407710542 0.9027655245406011
deltaT = 1.299247646360615e-05
diagonal:  Solving for rho, Initial residual = 0, Final residual = 0, No Iterations 0
diagonal:  Solving for rhoUx, Initial residual = 0, Final residual = 0, No Iterations 0
diagonal:  Solving for rhoE, Initial residual = 0, Final residual = 0, No Iterations 0
Mean and max Courant Numbers = 0.9024073690734306 0.9027646083544641
deltaT = 1.299247646360615e-05
diagonal:  Solving for rho, Initial residual = 0, Final residual = 0, No Iterations 0
diagonal:  Solving for rhoUx, Initial residual = 0, Final residual = 0, No Iterations 0
diagonal:  Solving for rhoE, Initial residual = 0, Final residual = 0, No Iterations 0
Mean and max Courant Numbers = 0.9024073865486899 0.9027633612316243
deltaT = 1.299247646360615e-05
diagonal:  Solving for rho, Initial residual = 0, Final residual = 0, No Iterations 0
diagonal:  Solving for rhoUx, Initial residual = 0, Final residual = 0, No Iterations 0
diagonal:  Solving for rhoE, Initial residual = 0, Final residual = 0, No Iterations 0
Time = 0.000506286

ExecutionTime = 0.22 s  ClockTime = 0 s

fieldAverage fieldAverage write:
    Calculating averages

Mean and max Courant Numbers = 0.9024075106215641 0.9027667662567798
deltaT = 1.299247646360614e-05
diagonal:  Solving for rho, Initial residual = 0, Final residual = 0, No Iterations 0
diagonal:  Solving for rhoUx, Initial residual = 0, Final residual = 0, No Iterations 0
diagonal:  Solving for rhoE, Initial residual = 0, Final residual = 0, No Iterations 0
Mean and max Courant Numbers = 0.9024074952436955 0.9027653625407046
deltaT = 1.299247646360614e-05
diagonal:  Solving for rho, Initial residual = 0, Final residual = 0, No Iterations 0
diagonal:  Solving for rhoUx, Initial residual = 0, Final residual = 0, No Iterations 0
diagonal:  Solving for rhoE, Initial residual = 0, Final residual = 0, No Iterations 0
Mean and max Courant Numbers = 0.902407445057843 0.9027641350657345
deltaT = 1.299247646360614e-05
diagonal:  Solving for rho, Initial residual = 0, Final residual = 0, No Iterations 0
diagonal:  Solving for rhoUx, Initial residual = 0, Final residual = 0, No Iterations 0
diagonal:  Solving for rhoE, Initial residual = 0, Final residual = 0, No Iterations 0
Mean and max Courant Numbers = 0.9024074256117363 0.9027638221795783
deltaT = 1.299247646360614e-05
diagonal:  Solving for rho, Initial residual = 0, Final residual = 0, No Iterations 0
diagonal:  Solving for rhoUx, Initial residual = 0, Final residual = 0, No Iterations 0
diagonal:  Solving for rhoE, Initial residual = 0, Final residual = 0, No Iterations 0
Time = 0.000519278

ExecutionTime = 0.22 s  ClockTime = 0 s

fieldAverage fieldAverage write:
    Calculating averages

Mean and max Courant Numbers = 0.9024075647740489 0.9027634347689439
deltaT = 1.299247646360614e-05
diagonal:  Solving for rho, Initial residual = 0, Final residual = 0, No Iterations 0
diagonal:  Solving for rhoUx, Initial residual = 0, Final residual = 0, No Iterations 0
diagonal:  Solving for rhoE, Initial residual = 0, Final residual = 0, No Iterations 0
Mean and max Courant Numbers = 0.9024075455749787 0.9027631776678714
deltaT = 1.299247646360614e-05
diagonal:  Solving for rho, Initial residual = 0, Final residual = 0, No Iterations 0
diagonal:  Solving for rhoUx, Initial residual = 0, Final residual = 0, No Iterations 0
diagonal:  Solving for rhoE, Initial residual = 0, Final residual = 0, No Iterations 0
Mean and max Courant Numbers = 0.9024075403648089 0.902763179538028
deltaT = 1.299247646360614e-05
diagonal:  Solving for rho, Initial residual = 0, Final residual = 0, No Iterations 0
diagonal:  Solving for rhoUx, Initial residual = 0, Final residual = 0, No Iterations 0
diagonal:  Solving for rhoE, Initial residual = 0, Final residual = 0, No Iterations 0
Mean and max Courant Numbers = 0.9024075377627681 0.9027623641506836
deltaT = 1.299247646360614e-05
diagonal:  Solving for rho, Initial residual = 0, Final residual = 0, No Iterations 0
diagonal:  Solving for rhoUx, Initial residual = 0, Final residual = 0, No Iterations 0
diagonal:  Solving for rhoE, Initial residual = 0, Final residual = 0, No Iterations 0
Time = 0.000532271

ExecutionTime = 0.22 s  ClockTime = 0 s

fieldAverage fieldAverage write:
    Calculating averages

Mean and max Courant Numbers = 0.9024077276389514 0.9027622822328224
deltaT = 1.299247646360614e-05
diagonal:  Solving for rho, Initial residual = 0, Final residual = 0, No Iterations 0
diagonal:  Solving for rhoUx, Initial residual = 0, Final residual = 0, No Iterations 0
diagonal:  Solving for rhoE, Initial residual = 0, Final residual = 0, No Iterations 0
Mean and max Courant Numbers = 0.9024077184277673 0.90276202739575
deltaT = 1.299247646360614e-05
diagonal:  Solving for rho, Initial residual = 0, Final residual = 0, No Iterations 0
diagonal:  Solving for rhoUx, Initial residual = 0, Final residual = 0, No Iterations 0
diagonal:  Solving for rhoE, Initial residual = 0, Final residual = 0, No Iterations 0
Mean and max Courant Numbers = 0.9024077297459416 0.9027618503860642
deltaT = 1.299247646360614e-05
diagonal:  Solving for rho, Initial residual = 0, Final residual = 0, No Iterations 0
diagonal:  Solving for rhoUx, Initial residual = 0, Final residual = 0, No Iterations 0
diagonal:  Solving for rhoE, Initial residual = 0, Final residual = 0, No Iterations 0
Mean and max Courant Numbers = 0.9024077581009954 0.9027620765157279
deltaT = 1.299247646360614e-05
diagonal:  Solving for rho, Initial residual = 0, Final residual = 0, No Iterations 0
diagonal:  Solving for rhoUx, Initial residual = 0, Final residual = 0, No Iterations 0
diagonal:  Solving for rhoE, Initial residual = 0, Final residual = 0, No Iterations 0
Time = 0.000545263

ExecutionTime = 0.23 s  ClockTime = 0 s

fieldAverage fieldAverage write:
    Calculating averages

Mean and max Courant Numbers = 0.9024080097510987 0.90276378573827
deltaT = 1.299247646360614e-05
diagonal:  Solving for rho, Initial residual = 0, Final residual = 0, No Iterations 0
diagonal:  Solving for rhoUx, Initial residual = 0, Final residual = 0, No Iterations 0
diagonal:  Solving for rhoE, Initial residual = 0, Final residual = 0, No Iterations 0
Mean and max Courant Numbers = 0.9024079971652104 0.902763405978807
deltaT = 1.299247646360614e-05
diagonal:  Solving for rho, Initial residual = 0, Final residual = 0, No Iterations 0
diagonal:  Solving for rhoUx, Initial residual = 0, Final residual = 0, No Iterations 0
diagonal:  Solving for rhoE, Initial residual = 0, Final residual = 0, No Iterations 0
Mean and max Courant Numbers = 0.9024080124767936 0.9027629901067742
deltaT = 1.299247646360614e-05
diagonal:  Solving for rho, Initial residual = 0, Final residual = 0, No Iterations 0
diagonal:  Solving for rhoUx, Initial residual = 0, Final residual = 0, No Iterations 0
diagonal:  Solving for rhoE, Initial residual = 0, Final residual = 0, No Iterations 0
Mean and max Courant Numbers = 0.9024080726379951 0.9027622140792556
deltaT = 1.299247646360614e-05
diagonal:  Solving for rho, Initial residual = 0, Final residual = 0, No Iterations 0
diagonal:  Solving for rhoUx, Initial residual = 0, Final residual = 0, No Iterations 0
diagonal:  Solving for rhoE, Initial residual = 0, Final residual = 0, No Iterations 0
Time = 0.000558256

ExecutionTime = 0.23 s  ClockTime = 0 s

fieldAverage fieldAverage write:
    Calculating averages

Mean and max Courant Numbers = 0.9024083511634706 0.9027619300584324
deltaT = 1.299247646360614e-05
diagonal:  Solving for rho, Initial residual = 0, Final residual = 0, No Iterations 0
diagonal:  Solving for rhoUx, Initial residual = 0, Final residual = 0, No Iterations 0
diagonal:  Solving for rhoE, Initial residual = 0, Final residual = 0, No Iterations 0
Mean and max Courant Numbers = 0.9024083546074229 0.9027617000651141
deltaT = 1.299247646360614e-05
diagonal:  Solving for rho, Initial residual = 0, Final residual = 0, No Iterations 0
diagonal:  Solving for rhoUx, Initial residual = 0, Final residual = 0, No Iterations 0
diagonal:  Solving for rhoE, Initial residual = 0, Final residual = 0, No Iterations 0
Mean and max Courant Numbers = 0.9024083768044934 0.9027611035537431
deltaT = 1.299247646360614e-05
diagonal:  Solving for rho, Initial residual = 0, Final residual = 0, No Iterations 0
diagonal:  Solving for rhoUx, Initial residual = 0, Final residual = 0, No Iterations 0
diagonal:  Solving for rhoE, Initial residual = 0, Final residual = 0, No Iterations 0
Mean and max Courant Numbers = 0.9024084496618993 0.9027610058209352
deltaT = 1.299247646360614e-05
diagonal:  Solving for rho, Initial residual = 0, Final residual = 0, No Iterations 0
diagonal:  Solving for rhoUx, Initial residual = 0, Final residual = 0, No Iterations 0
diagonal:  Solving for rhoE, Initial residual = 0, Final residual = 0, No Iterations 0
Time = 0.000571248

ExecutionTime = 0.24 s  ClockTime = 0 s

fieldAverage fieldAverage write:
    Calculating averages

Mean and max Courant Numbers = 0.9024087652362347 0.9027628088810857
deltaT = 1.299247646360614e-05
diagonal:  Solving for rho, Initial residual = 0, Final residual = 0, No Iterations 0
diagonal:  Solving for rhoUx, Initial residual = 0, Final residual = 0, No Iterations 0
diagonal:  Solving for rhoE, Initial residual = 0, Final residual = 0, No Iterations 0
Mean and max Courant Numbers = 0.9024087885460208 0.9027622127163434
deltaT = 1.299247646360614e-05
diagonal:  Solving for rho, Initial residual = 0, Final residual = 0, No Iterations 0
diagonal:  Solving for rhoUx, Initial residual = 0, Final residual = 0, No Iterations 0
diagonal:  Solving for rhoE, Initial residual = 0, Final residual = 0, No Iterations 0
Mean and max Courant Numbers = 0.9024088099079209 0.902761802302807
deltaT = 1.299247646360614e-05
diagonal:  Solving for rho, Initial residual = 0, Final residual = 0, No Iterations 0
diagonal:  Solving for rhoUx, Initial residual = 0, Final residual = 0, No Iterations 0
diagonal:  Solving for rhoE, Initial residual = 0, Final residual = 0, No Iterations 0
Mean and max Courant Numbers = 0.9024088638443162 0.9027616742664724
deltaT = 1.299247646360614e-05
diagonal:  Solving for rho, Initial residual = 0, Final residual = 0, No Iterations 0
diagonal:  Solving for rhoUx, Initial residual = 0, Final residual = 0, No Iterations 0
diagonal:  Solving for rhoE, Initial residual = 0, Final residual = 0, No Iterations 0
Time = 0.000584241

ExecutionTime = 0.24 s  ClockTime = 0 s

fieldAverage fieldAverage write:
    Calculating averages

Mean and max Courant Numbers = 0.9024092035581374 0.902761494643981
deltaT = 1.299247646360614e-05
diagonal:  Solving for rho, Initial residual = 0, Final residual = 0, No Iterations 0
diagonal:  Solving for rhoUx, Initial residual = 0, Final residual = 0, No Iterations 0
diagonal:  Solving for rhoE, Initial residual = 0, Final residual = 0, No Iterations 0
Mean and max Courant Numbers = 0.9024092227172441 0.9027613898388234
deltaT = 1.299247646360614e-05
diagonal:  Solving for rho, Initial residual = 0, Final residual = 0, No Iterations 0
diagonal:  Solving for rhoUx, Initial residual = 0, Final residual = 0, No Iterations 0
diagonal:  Solving for rhoE, Initial residual = 0, Final residual = 0, No Iterations 0
Mean and max Courant Numbers = 0.9024092565101272 0.9027610859891266
deltaT = 1.299247646360614e-05
diagonal:  Solving for rho, Initial residual = 0, Final residual = 0, No Iterations 0
diagonal:  Solving for rhoUx, Initial residual = 0, Final residual = 0, No Iterations 0
diagonal:  Solving for rhoE, Initial residual = 0, Final residual = 0, No Iterations 0
Mean and max Courant Numbers = 0.9024093153822242 0.9027604493858988
deltaT = 1.299247646360614e-05
diagonal:  Solving for rho, Initial residual = 0, Final residual = 0, No Iterations 0
diagonal:  Solving for rhoUx, Initial residual = 0, Final residual = 0, No Iterations 0
diagonal:  Solving for rhoE, Initial residual = 0, Final residual = 0, No Iterations 0
Time = 0.000597233

ExecutionTime = 0.24 s  ClockTime = 0 s

fieldAverage fieldAverage write:
    Calculating averages

Mean and max Courant Numbers = 0.9024096666786064 0.9027616358496025
deltaT = 1.299247646360614e-05
diagonal:  Solving for rho, Initial residual = 0, Final residual = 0, No Iterations 0
diagonal:  Solving for rhoUx, Initial residual = 0, Final residual = 0, No Iterations 0
diagonal:  Solving for rhoE, Initial residual = 0, Final residual = 0, No Iterations 0
Mean and max Courant Numbers = 0.9024096807376598 0.9027609646841673
deltaT = 1.299247646360614e-05
diagonal:  Solving for rho, Initial residual = 0, Final residual = 0, No Iterations 0
diagonal:  Solving for rhoUx, Initial residual = 0, Final residual = 0, No Iterations 0
diagonal:  Solving for rhoE, Initial residual = 0, Final residual = 0, No Iterations 0
Mean and max Courant Numbers = 0.9024097065128792 0.9027604635253423
deltaT = 1.299247646360614e-05
diagonal:  Solving for rho, Initial residual = 0, Final residual = 0, No Iterations 0
diagonal:  Solving for rhoUx, Initial residual = 0, Final residual = 0, No Iterations 0
diagonal:  Solving for rhoE, Initial residual = 0, Final residual = 0, No Iterations 0
Mean and max Courant Numbers = 0.9024097641389909 0.9027604250134578
deltaT = 1.299247646360614e-05
diagonal:  Solving for rho, Initial residual = 0, Final residual = 0, No Iterations 0
diagonal:  Solving for rhoUx, Initial residual = 0, Final residual = 0, No Iterations 0
diagonal:  Solving for rhoE, Initial residual = 0, Final residual = 0, No Iterations 0
Time = 0.000610226

ExecutionTime = 0.25 s  ClockTime = 0 s

fieldAverage fieldAverage write:
    Calculating averages

Mean and max Courant Numbers = 0.9024100901027526 0.9027600981387846
deltaT = 1.299247646360614e-05
diagonal:  Solving for rho, Initial residual = 0, Final residual = 0, No Iterations 0
diagonal:  Solving for rhoUx, Initial residual = 0, Final residual = 0, No Iterations 0
diagonal:  Solving for rhoE, Initial residual = 0, Final residual = 0, No Iterations 0
Mean and max Courant Numbers = 0.9024101029258154 0.9027601289150626
deltaT = 1.299247646360614e-05
diagonal:  Solving for rho, Initial residual = 0, Final residual = 0, No Iterations 0
diagonal:  Solving for rhoUx, Initial residual = 0, Final residual = 0, No Iterations 0
diagonal:  Solving for rhoE, Initial residual = 0, Final residual = 0, No Iterations 0
Mean and max Courant Numbers = 0.9024101347329815 0.9027600468091831
deltaT = 1.299247646360614e-05
diagonal:  Solving for rho, Initial residual = 0, Final residual = 0, No Iterations 0
diagonal:  Solving for rhoUx, Initial residual = 0, Final residual = 0, No Iterations 0
diagonal:  Solving for rhoE, Initial residual = 0, Final residual = 0, No Iterations 0
Mean and max Courant Numbers = 0.9024102030266085 0.902759632710307
deltaT = 1.299247646360614e-05
diagonal:  Solving for rho, Initial residual = 0, Final residual = 0, No Iterations 0
diagonal:  Solving for rhoUx, Initial residual = 0, Final residual = 0, No Iterations 0
diagonal:  Solving for rhoE, Initial residual = 0, Final residual = 0, No Iterations 0
Time = 0.000623218

ExecutionTime = 0.25 s  ClockTime = 0 s

fieldAverage fieldAverage write:
    Calculating averages

Mean and max Courant Numbers = 0.9024105190245374 0.9027594853408479
deltaT = 1.299247646360614e-05
diagonal:  Solving for rho, Initial residual = 0, Final residual = 0, No Iterations 0
diagonal:  Solving for rhoUx, Initial residual = 0, Final residual = 0, No Iterations 0
diagonal:  Solving for rhoE, Initial residual = 0, Final residual = 0, No Iterations 0
Mean and max Courant Numbers = 0.9024105236986314 0.9027593516616779
deltaT = 1.299247646360614e-05
diagonal:  Solving for rho, Initial residual = 0, Final residual = 0, No Iterations 0
diagonal:  Solving for rhoUx, Initial residual = 0, Final residual = 0, No Iterations 0
diagonal:  Solving for rhoE, Initial residual = 0, Final residual = 0, No Iterations 0
Mean and max Courant Numbers = 0.9024105318866624 0.9027588991733558
deltaT = 1.299247646360614e-05
diagonal:  Solving for rho, Initial residual = 0, Final residual = 0, No Iterations 0
diagonal:  Solving for rhoUx, Initial residual = 0, Final residual = 0, No Iterations 0
diagonal:  Solving for rhoE, Initial residual = 0, Final residual = 0, No Iterations 0
Mean and max Courant Numbers = 0.902410576030002 0.9027589331087145
deltaT = 1.299247646360614e-05
diagonal:  Solving for rho, Initial residual = 0, Final residual = 0, No Iterations 0
diagonal:  Solving for rhoUx, Initial residual = 0, Final residual = 0, No Iterations 0
[...]
Mean and max Courant Numbers = 0.9022600206706199 0.9026811405341507
deltaT = 1.298701298701167e-05
diagonal:  Solving for rho, Initial residual = 0, Final residual = 0, No Iterations 0
diagonal:  Solving for rhoUx, Initial residual = 0, Final residual = 0, No Iterations 0
diagonal:  Solving for rhoE, Initial residual = 0, Final residual = 0, No Iterations 0
Mean and max Courant Numbers = 0.9022581671672868 0.902676798982737
deltaT = 1.298701298701167e-05
diagonal:  Solving for rho, Initial residual = 0, Final residual = 0, No Iterations 0
diagonal:  Solving for rhoUx, Initial residual = 0, Final residual = 0, No Iterations 0
diagonal:  Solving for rhoE, Initial residual = 0, Final residual = 0, No Iterations 0
Mean and max Courant Numbers = 0.90225599890286 0.9026702765593438
deltaT = 1.298701298701167e-05
diagonal:  Solving for rho, Initial residual = 0, Final residual = 0, No Iterations 0
diagonal:  Solving for rhoUx, Initial residual = 0, Final residual = 0, No Iterations 0
diagonal:  Solving for rhoE, Initial residual = 0, Final residual = 0, No Iterations 0
Time = 0.0198442

ExecutionTime = 6.15 s  ClockTime = 7 s

fieldAverage fieldAverage write:
    Calculating averages

Mean and max Courant Numbers = 0.9022532298662248 0.902666626800852
deltaT = 1.298701298701153e-05
diagonal:  Solving for rho, Initial residual = 0, Final residual = 0, No Iterations 0
diagonal:  Solving for rhoUx, Initial residual = 0, Final residual = 0, No Iterations 0
diagonal:  Solving for rhoE, Initial residual = 0, Final residual = 0, No Iterations 0
Mean and max Courant Numbers = 0.9022523814699909 0.902664121833835
deltaT = 1.298701298701153e-05
diagonal:  Solving for rho, Initial residual = 0, Final residual = 0, No Iterations 0
diagonal:  Solving for rhoUx, Initial residual = 0, Final residual = 0, No Iterations 0
diagonal:  Solving for rhoE, Initial residual = 0, Final residual = 0, No Iterations 0
Mean and max Courant Numbers = 0.9022512930503582 0.9026620071828898
deltaT = 1.298701298701153e-05
diagonal:  Solving for rho, Initial residual = 0, Final residual = 0, No Iterations 0
diagonal:  Solving for rhoUx, Initial residual = 0, Final residual = 0, No Iterations 0
diagonal:  Solving for rhoE, Initial residual = 0, Final residual = 0, No Iterations 0
Mean and max Courant Numbers = 0.9022500770985147 0.902659616473663
deltaT = 1.298701298701153e-05
diagonal:  Solving for rho, Initial residual = 0, Final residual = 0, No Iterations 0
diagonal:  Solving for rhoUx, Initial residual = 0, Final residual = 0, No Iterations 0
diagonal:  Solving for rhoE, Initial residual = 0, Final residual = 0, No Iterations 0
Time = 0.0198571

ExecutionTime = 6.15 s  ClockTime = 7 s

fieldAverage fieldAverage write:
    Calculating averages

Mean and max Courant Numbers = 0.9022496385765582 0.9026590817786994
deltaT = 1.298701298701169e-05
diagonal:  Solving for rho, Initial residual = 0, Final residual = 0, No Iterations 0
diagonal:  Solving for rhoUx, Initial residual = 0, Final residual = 0, No Iterations 0
diagonal:  Solving for rhoE, Initial residual = 0, Final residual = 0, No Iterations 0
Mean and max Courant Numbers = 0.9022492910196491 0.9026599185403469
deltaT = 1.298701298701169e-05
diagonal:  Solving for rho, Initial residual = 0, Final residual = 0, No Iterations 0
diagonal:  Solving for rhoUx, Initial residual = 0, Final residual = 0, No Iterations 0
diagonal:  Solving for rhoE, Initial residual = 0, Final residual = 0, No Iterations 0
Mean and max Courant Numbers = 0.9022489504822164 0.9026620481536013
deltaT = 1.298701298701169e-05
diagonal:  Solving for rho, Initial residual = 0, Final residual = 0, No Iterations 0
diagonal:  Solving for rhoUx, Initial residual = 0, Final residual = 0, No Iterations 0
diagonal:  Solving for rhoE, Initial residual = 0, Final residual = 0, No Iterations 0
Mean and max Courant Numbers = 0.902248929822339 0.9026649332118245
deltaT = 1.298701298701169e-05
diagonal:  Solving for rho, Initial residual = 0, Final residual = 0, No Iterations 0
diagonal:  Solving for rhoUx, Initial residual = 0, Final residual = 0, No Iterations 0
diagonal:  Solving for rhoE, Initial residual = 0, Final residual = 0, No Iterations 0
Time = 0.0198701

ExecutionTime = 6.15 s  ClockTime = 7 s

fieldAverage fieldAverage write:
    Calculating averages

Mean and max Courant Numbers = 0.902251722050799 0.9026739173576812
deltaT = 1.298701298701153e-05
diagonal:  Solving for rho, Initial residual = 0, Final residual = 0, No Iterations 0
diagonal:  Solving for rhoUx, Initial residual = 0, Final residual = 0, No Iterations 0
diagonal:  Solving for rhoE, Initial residual = 0, Final residual = 0, No Iterations 0
Mean and max Courant Numbers = 0.9022521482636684 0.9026755978284694
deltaT = 1.298701298701153e-05
diagonal:  Solving for rho, Initial residual = 0, Final residual = 0, No Iterations 0
diagonal:  Solving for rhoUx, Initial residual = 0, Final residual = 0, No Iterations 0
diagonal:  Solving for rhoE, Initial residual = 0, Final residual = 0, No Iterations 0
Mean and max Courant Numbers = 0.9022530525756265 0.9026774931710416
deltaT = 1.298701298701153e-05
diagonal:  Solving for rho, Initial residual = 0, Final residual = 0, No Iterations 0
diagonal:  Solving for rhoUx, Initial residual = 0, Final residual = 0, No Iterations 0
diagonal:  Solving for rhoE, Initial residual = 0, Final residual = 0, No Iterations 0
Mean and max Courant Numbers = 0.9022548946573521 0.902680768138205
deltaT = 1.298701298701153e-05
diagonal:  Solving for rho, Initial residual = 0, Final residual = 0, No Iterations 0
diagonal:  Solving for rhoUx, Initial residual = 0, Final residual = 0, No Iterations 0
diagonal:  Solving for rhoE, Initial residual = 0, Final residual = 0, No Iterations 0
Time = 0.0198831

ExecutionTime = 6.16 s  ClockTime = 7 s

fieldAverage fieldAverage write:
    Calculating averages

Mean and max Courant Numbers = 0.9022620160652625 0.9026927664469836
deltaT = 1.298701298701134e-05
diagonal:  Solving for rho, Initial residual = 0, Final residual = 0, No Iterations 0
diagonal:  Solving for rhoUx, Initial residual = 0, Final residual = 0, No Iterations 0
diagonal:  Solving for rhoE, Initial residual = 0, Final residual = 0, No Iterations 0
Mean and max Courant Numbers = 0.9022633177371776 0.9026960051053752
deltaT = 1.298701298701134e-05
diagonal:  Solving for rho, Initial residual = 0, Final residual = 0, No Iterations 0
diagonal:  Solving for rhoUx, Initial residual = 0, Final residual = 0, No Iterations 0
diagonal:  Solving for rhoE, Initial residual = 0, Final residual = 0, No Iterations 0
Mean and max Courant Numbers = 0.9022655525933367 0.9027002527337405
deltaT = 1.298701298701134e-05
diagonal:  Solving for rho, Initial residual = 0, Final residual = 0, No Iterations 0
diagonal:  Solving for rhoUx, Initial residual = 0, Final residual = 0, No Iterations 0
diagonal:  Solving for rhoE, Initial residual = 0, Final residual = 0, No Iterations 0
Mean and max Courant Numbers = 0.9022689129720376 0.9027071241074036
deltaT = 1.298701298701134e-05
diagonal:  Solving for rho, Initial residual = 0, Final residual = 0, No Iterations 0
diagonal:  Solving for rhoUx, Initial residual = 0, Final residual = 0, No Iterations 0
diagonal:  Solving for rhoE, Initial residual = 0, Final residual = 0, No Iterations 0
Time = 0.0198961

ExecutionTime = 6.16 s  ClockTime = 7 s

fieldAverage fieldAverage write:
    Calculating averages

Mean and max Courant Numbers = 0.9022783643009803 0.9027250391592587
deltaT = 1.298701298701153e-05
diagonal:  Solving for rho, Initial residual = 0, Final residual = 0, No Iterations 0
diagonal:  Solving for rhoUx, Initial residual = 0, Final residual = 0, No Iterations 0
diagonal:  Solving for rhoE, Initial residual = 0, Final residual = 0, No Iterations 0
Mean and max Courant Numbers = 0.902279966897555 0.9027282525693073
deltaT = 1.298701298701153e-05
diagonal:  Solving for rho, Initial residual = 0, Final residual = 0, No Iterations 0
diagonal:  Solving for rhoUx, Initial residual = 0, Final residual = 0, No Iterations 0
diagonal:  Solving for rhoE, Initial residual = 0, Final residual = 0, No Iterations 0
Mean and max Courant Numbers = 0.9022825477588362 0.9027329578914479
deltaT = 1.298701298701153e-05
diagonal:  Solving for rho, Initial residual = 0, Final residual = 0, No Iterations 0
diagonal:  Solving for rhoUx, Initial residual = 0, Final residual = 0, No Iterations 0
diagonal:  Solving for rhoE, Initial residual = 0, Final residual = 0, No Iterations 0
Mean and max Courant Numbers = 0.9022860266185041 0.9027404060912283
deltaT = 1.298701298701153e-05
diagonal:  Solving for rho, Initial residual = 0, Final residual = 0, No Iterations 0
diagonal:  Solving for rhoUx, Initial residual = 0, Final residual = 0, No Iterations 0
diagonal:  Solving for rhoE, Initial residual = 0, Final residual = 0, No Iterations 0
Time = 0.0199091

ExecutionTime = 6.16 s  ClockTime = 7 s

fieldAverage fieldAverage write:
    Calculating averages

Mean and max Courant Numbers = 0.9022947046455452 0.9027575883175009
deltaT = 1.298701298701178e-05
diagonal:  Solving for rho, Initial residual = 0, Final residual = 0, No Iterations 0
diagonal:  Solving for rhoUx, Initial residual = 0, Final residual = 0, No Iterations 0
diagonal:  Solving for rhoE, Initial residual = 0, Final residual = 0, No Iterations 0
Mean and max Courant Numbers = 0.902296134945612 0.9027614519725971
deltaT = 1.298701298701178e-05
diagonal:  Solving for rho, Initial residual = 0, Final residual = 0, No Iterations 0
diagonal:  Solving for rhoUx, Initial residual = 0, Final residual = 0, No Iterations 0
diagonal:  Solving for rhoE, Initial residual = 0, Final residual = 0, No Iterations 0
Mean and max Courant Numbers = 0.9022981676840107 0.9027669385967285
deltaT = 1.298701298701178e-05
diagonal:  Solving for rho, Initial residual = 0, Final residual = 0, No Iterations 0
diagonal:  Solving for rhoUx, Initial residual = 0, Final residual = 0, No Iterations 0
diagonal:  Solving for rhoE, Initial residual = 0, Final residual = 0, No Iterations 0
Mean and max Courant Numbers = 0.9023005809764451 0.9027741909031602
deltaT = 1.298701298701178e-05
diagonal:  Solving for rho, Initial residual = 0, Final residual = 0, No Iterations 0
diagonal:  Solving for rhoUx, Initial residual = 0, Final residual = 0, No Iterations 0
diagonal:  Solving for rhoE, Initial residual = 0, Final residual = 0, No Iterations 0
Time = 0.0199221

ExecutionTime = 6.17 s  ClockTime = 7 s

fieldAverage fieldAverage write:
    Calculating averages

Mean and max Courant Numbers = 0.902306438154752 0.9027898407296499
deltaT = 1.298701298701153e-05
diagonal:  Solving for rho, Initial residual = 0, Final residual = 0, No Iterations 0
diagonal:  Solving for rhoUx, Initial residual = 0, Final residual = 0, No Iterations 0
diagonal:  Solving for rhoE, Initial residual = 0, Final residual = 0, No Iterations 0
Mean and max Courant Numbers = 0.9023070707813293 0.9027936205888661
deltaT = 1.298701298701153e-05
diagonal:  Solving for rho, Initial residual = 0, Final residual = 0, No Iterations 0
diagonal:  Solving for rhoUx, Initial residual = 0, Final residual = 0, No Iterations 0
diagonal:  Solving for rhoE, Initial residual = 0, Final residual = 0, No Iterations 0
Mean and max Courant Numbers = 0.902307863352124 0.9027984135217461
deltaT = 1.298701298701153e-05
diagonal:  Solving for rho, Initial residual = 0, Final residual = 0, No Iterations 0
diagonal:  Solving for rhoUx, Initial residual = 0, Final residual = 0, No Iterations 0
diagonal:  Solving for rhoE, Initial residual = 0, Final residual = 0, No Iterations 0
Mean and max Courant Numbers = 0.902308620621272 0.9028024543847087
deltaT = 1.298701298701153e-05
diagonal:  Solving for rho, Initial residual = 0, Final residual = 0, No Iterations 0
diagonal:  Solving for rhoUx, Initial residual = 0, Final residual = 0, No Iterations 0
diagonal:  Solving for rhoE, Initial residual = 0, Final residual = 0, No Iterations 0
Time = 0.0199351

ExecutionTime = 6.17 s  ClockTime = 7 s

fieldAverage fieldAverage write:
    Calculating averages

Mean and max Courant Numbers = 0.9023103124366832 0.9028101834042042
deltaT = 1.298701298701119e-05
diagonal:  Solving for rho, Initial residual = 0, Final residual = 0, No Iterations 0
diagonal:  Solving for rhoUx, Initial residual = 0, Final residual = 0, No Iterations 0
diagonal:  Solving for rhoE, Initial residual = 0, Final residual = 0, No Iterations 0
Mean and max Courant Numbers = 0.9023100303162384 0.9028117542259042
deltaT = 1.298701298701119e-05
diagonal:  Solving for rho, Initial residual = 0, Final residual = 0, No Iterations 0
diagonal:  Solving for rhoUx, Initial residual = 0, Final residual = 0, No Iterations 0
diagonal:  Solving for rhoE, Initial residual = 0, Final residual = 0, No Iterations 0
Mean and max Courant Numbers = 0.9023094507529806 0.9028128875874674
deltaT = 1.298701298701119e-05
diagonal:  Solving for rho, Initial residual = 0, Final residual = 0, No Iterations 0
diagonal:  Solving for rhoUx, Initial residual = 0, Final residual = 0, No Iterations 0
diagonal:  Solving for rhoE, Initial residual = 0, Final residual = 0, No Iterations 0
Mean and max Courant Numbers = 0.9023083181410808 0.9028118656859561
deltaT = 1.298701298701119e-05
diagonal:  Solving for rho, Initial residual = 0, Final residual = 0, No Iterations 0
diagonal:  Solving for rhoUx, Initial residual = 0, Final residual = 0, No Iterations 0
diagonal:  Solving for rhoE, Initial residual = 0, Final residual = 0, No Iterations 0
Time = 0.0199481

ExecutionTime = 6.17 s  ClockTime = 7 s

fieldAverage fieldAverage write:
    Calculating averages

Mean and max Courant Numbers = 0.9023060253364631 0.9028103429827968
deltaT = 1.298701298701153e-05
diagonal:  Solving for rho, Initial residual = 0, Final residual = 0, No Iterations 0
diagonal:  Solving for rhoUx, Initial residual = 0, Final residual = 0, No Iterations 0
diagonal:  Solving for rhoE, Initial residual = 0, Final residual = 0, No Iterations 0
Mean and max Courant Numbers = 0.9023049157660382 0.9028101281958797
deltaT = 1.298701298701153e-05
diagonal:  Solving for rho, Initial residual = 0, Final residual = 0, No Iterations 0
diagonal:  Solving for rhoUx, Initial residual = 0, Final residual = 0, No Iterations 0
diagonal:  Solving for rhoE, Initial residual = 0, Final residual = 0, No Iterations 0
Mean and max Courant Numbers = 0.9023031427292213 0.9028091854523699
deltaT = 1.298701298701153e-05
diagonal:  Solving for rho, Initial residual = 0, Final residual = 0, No Iterations 0
diagonal:  Solving for rhoUx, Initial residual = 0, Final residual = 0, No Iterations 0
diagonal:  Solving for rhoE, Initial residual = 0, Final residual = 0, No Iterations 0
Mean and max Courant Numbers = 0.9023005387993505 0.9028076071708673
deltaT = 1.298701298701153e-05
diagonal:  Solving for rho, Initial residual = 0, Final residual = 0, No Iterations 0
diagonal:  Solving for rhoUx, Initial residual = 0, Final residual = 0, No Iterations 0
diagonal:  Solving for rhoE, Initial residual = 0, Final residual = 0, No Iterations 0
Time = 0.019961

ExecutionTime = 6.17 s  ClockTime = 7 s

fieldAverage fieldAverage write:
    Calculating averages

Mean and max Courant Numbers = 0.9022955516094439 0.9027985510931231
deltaT = 1.298701298701211e-05
diagonal:  Solving for rho, Initial residual = 0, Final residual = 0, No Iterations 0
diagonal:  Solving for rhoUx, Initial residual = 0, Final residual = 0, No Iterations 0
diagonal:  Solving for rhoE, Initial residual = 0, Final residual = 0, No Iterations 0
Mean and max Courant Numbers = 0.9022939334750216 0.9027964781027847
deltaT = 1.298701298701211e-05
diagonal:  Solving for rho, Initial residual = 0, Final residual = 0, No Iterations 0
diagonal:  Solving for rhoUx, Initial residual = 0, Final residual = 0, No Iterations 0
diagonal:  Solving for rhoE, Initial residual = 0, Final residual = 0, No Iterations 0
Mean and max Courant Numbers = 0.9022914206982529 0.9027932293508688
deltaT = 1.298701298701211e-05
diagonal:  Solving for rho, Initial residual = 0, Final residual = 0, No Iterations 0
diagonal:  Solving for rhoUx, Initial residual = 0, Final residual = 0, No Iterations 0
diagonal:  Solving for rhoE, Initial residual = 0, Final residual = 0, No Iterations 0
Mean and max Courant Numbers = 0.9022881516838379 0.9027864163688161
deltaT = 1.298701298701211e-05
diagonal:  Solving for rho, Initial residual = 0, Final residual = 0, No Iterations 0
diagonal:  Solving for rhoUx, Initial residual = 0, Final residual = 0, No Iterations 0
diagonal:  Solving for rhoE, Initial residual = 0, Final residual = 0, No Iterations 0
Time = 0.019974

ExecutionTime = 6.18 s  ClockTime = 7 s

fieldAverage fieldAverage write:
    Calculating averages

Mean and max Courant Numbers = 0.9022819455381661 0.9027776472421076
deltaT = 1.298701298701153e-05
diagonal:  Solving for rho, Initial residual = 0, Final residual = 0, No Iterations 0
diagonal:  Solving for rhoUx, Initial residual = 0, Final residual = 0, No Iterations 0
diagonal:  Solving for rhoE, Initial residual = 0, Final residual = 0, No Iterations 0
Mean and max Courant Numbers = 0.9022801378540265 0.9027719816421234
deltaT = 1.298701298701153e-05
diagonal:  Solving for rho, Initial residual = 0, Final residual = 0, No Iterations 0
diagonal:  Solving for rhoUx, Initial residual = 0, Final residual = 0, No Iterations 0
diagonal:  Solving for rhoE, Initial residual = 0, Final residual = 0, No Iterations 0
Mean and max Courant Numbers = 0.9022774773722482 0.902764097807181
deltaT = 1.298701298701153e-05
diagonal:  Solving for rho, Initial residual = 0, Final residual = 0, No Iterations 0
diagonal:  Solving for rhoUx, Initial residual = 0, Final residual = 0, No Iterations 0
diagonal:  Solving for rhoE, Initial residual = 0, Final residual = 0, No Iterations 0
Mean and max Courant Numbers = 0.9022740088047237 0.9027538637167319
deltaT = 1.298701298701153e-05
diagonal:  Solving for rho, Initial residual = 0, Final residual = 0, No Iterations 0
diagonal:  Solving for rhoUx, Initial residual = 0, Final residual = 0, No Iterations 0
diagonal:  Solving for rhoE, Initial residual = 0, Final residual = 0, No Iterations 0
Time = 0.019987

ExecutionTime = 6.18 s  ClockTime = 7 s

fieldAverage fieldAverage write:
    Calculating averages

Mean and max Courant Numbers = 0.9022679996723041 0.9027371059440122
deltaT = 1.29870129870098e-05
diagonal:  Solving for rho, Initial residual = 0, Final residual = 0, No Iterations 0
diagonal:  Solving for rhoUx, Initial residual = 0, Final residual = 0, No Iterations 0
diagonal:  Solving for rhoE, Initial residual = 0, Final residual = 0, No Iterations 0
Mean and max Courant Numbers = 0.9022663272530806 0.9027323719240363
deltaT = 1.29870129870098e-05
diagonal:  Solving for rho, Initial residual = 0, Final residual = 0, No Iterations 0
diagonal:  Solving for rhoUx, Initial residual = 0, Final residual = 0, No Iterations 0
diagonal:  Solving for rhoE, Initial residual = 0, Final residual = 0, No Iterations 0
Mean and max Courant Numbers = 0.9022639461258724 0.9027243743557357
deltaT = 1.29870129870098e-05
diagonal:  Solving for rho, Initial residual = 0, Final residual = 0, No Iterations 0
diagonal:  Solving for rhoUx, Initial residual = 0, Final residual = 0, No Iterations 0
diagonal:  Solving for rhoE, Initial residual = 0, Final residual = 0, No Iterations 0
Mean and max Courant Numbers = 0.9022608913588998 0.9027144745866359
deltaT = 1.29870129870098e-05
diagonal:  Solving for rho, Initial residual = 0, Final residual = 0, No Iterations 0
diagonal:  Solving for rhoUx, Initial residual = 0, Final residual = 0, No Iterations 0
diagonal:  Solving for rhoE, Initial residual = 0, Final residual = 0, No Iterations 0
Time = 0.02

ExecutionTime = 6.18 s  ClockTime = 7 s

fieldAverage fieldAverage write:
    Calculating averages

    Writing average fields

End

