/*---------------------------------------------------------------------------*\
| =========                 |                                                 |
| \\      /  F ield         | OpenFOAM: The Open Source CFD Toolbox           |
|  \\    /   O peration     | Version:  v2012                                 |
|   \\  /    A nd           | Website:  www.openfoam.com                      |
|    \\/     M anipulation  |                                                 |
\*---------------------------------------------------------------------------*/
Build  : 79e353b84e-20201222 OPENFOAM=2012
Arch   : "LSB;label=32;scalar=64"
Exec   : rhoCentralFoam
Date   : Jun 18 2022
Time   : 07:17:57
Host   : sylogin1.pi.sjtu.edu.cn
PID    : 1189026
I/O    : uncollated
Case   : /dssg/home/acct-medgm/medgm/openfoam-shockTube/tutorials/compressible/sineWave/01-sineWave-nork4-damping
nProcs : 1
trapFpe: Floating point exception trapping enabled (FOAM_SIGFPE).
fileModificationChecking : Monitoring run-time modified files using timeStampMaster (fileModificationSkew 5, maxFileModificationPolls 20)
allowSystemOperations : Allowing user-supplied system call operations

// * * * * * * * * * * * * * * * * * * * * * * * * * * * * * * * * * * * * * //
Create time

Create mesh for time = 0

Reading thermophysical properties

Selecting thermodynamics package 
{
    type            hePsiThermo;
    mixture         pureMixture;
    transport       const;
    thermo          hConst;
    equationOfState perfectGas;
    specie          specie;
    energy          sensibleInternalEnergy;
}

Reading field U

Creating turbulence model

Selecting turbulence model type laminar
Selecting laminar stress model Stokes
fluxScheme: Kurganov

Starting time loop

fieldAverage fieldAverage:
    Restarting averaging for fields:
        U: starting averaging at time 0
        p: starting averaging at time 0

Mean and max Courant Numbers = 0.1389099888499554 0.1389099888499813
deltaT = 1.438848920863309e-06
Time = 1.43885e-06

diagonal:  Solving for rho, Initial residual = 0, Final residual = 0, No Iterations 0
diagonal:  Solving for rhoUx, Initial residual = 0, Final residual = 0, No Iterations 0
diagonal:  Solving for rhoE, Initial residual = 0, Final residual = 0, No Iterations 0
ExecutionTime = 0.06 s  ClockTime = 0 s

fieldAverage fieldAverage:
    Reading/initialising field UMean
    Reading/initialising field pMean

fieldAverage fieldAverage write:
    Calculating averages

Mean and max Courant Numbers = 0.09993524377694632 0.09993524377696497
deltaT = 1.438848920863309e-06
Time = 2.8777e-06

diagonal:  Solving for rho, Initial residual = 0, Final residual = 0, No Iterations 0
diagonal:  Solving for rhoUx, Initial residual = 0, Final residual = 0, No Iterations 0
diagonal:  Solving for rhoE, Initial residual = 0, Final residual = 0, No Iterations 0
ExecutionTime = 0.06 s  ClockTime = 0 s

fieldAverage fieldAverage write:
    Calculating averages

Mean and max Courant Numbers = 0.09993524415872705 0.09993548239037815
deltaT = 1.438848920863309e-06
Time = 4.31655e-06

diagonal:  Solving for rho, Initial residual = 0, Final residual = 0, No Iterations 0
diagonal:  Solving for rhoUx, Initial residual = 0, Final residual = 0, No Iterations 0
diagonal:  Solving for rhoE, Initial residual = 0, Final residual = 0, No Iterations 0
ExecutionTime = 0.06 s  ClockTime = 0 s

fieldAverage fieldAverage write:
    Calculating averages

Mean and max Courant Numbers = 0.099935244873378 0.09993592812039759
deltaT = 1.438848920863309e-06
Time = 5.7554e-06

diagonal:  Solving for rho, Initial residual = 0, Final residual = 0, No Iterations 0
diagonal:  Solving for rhoUx, Initial residual = 0, Final residual = 0, No Iterations 0
diagonal:  Solving for rhoE, Initial residual = 0, Final residual = 0, No Iterations 0
ExecutionTime = 0.06 s  ClockTime = 0 s

fieldAverage fieldAverage write:
    Calculating averages

Mean and max Courant Numbers = 0.09993524588525105 0.0999365545043238
deltaT = 1.438848920863309e-06
Time = 7.19424e-06

diagonal:  Solving for rho, Initial residual = 0, Final residual = 0, No Iterations 0
diagonal:  Solving for rhoUx, Initial residual = 0, Final residual = 0, No Iterations 0
diagonal:  Solving for rhoE, Initial residual = 0, Final residual = 0, No Iterations 0
ExecutionTime = 0.06 s  ClockTime = 0 s

fieldAverage fieldAverage write:
    Calculating averages

Mean and max Courant Numbers = 0.09993524716800455 0.09993733828777006
deltaT = 1.438848920863309e-06
Time = 8.63309e-06

diagonal:  Solving for rho, Initial residual = 0, Final residual = 0, No Iterations 0
diagonal:  Solving for rhoUx, Initial residual = 0, Final residual = 0, No Iterations 0
diagonal:  Solving for rhoE, Initial residual = 0, Final residual = 0, No Iterations 0
ExecutionTime = 0.06 s  ClockTime = 0 s

fieldAverage fieldAverage write:
    Calculating averages

Mean and max Courant Numbers = 0.09993524870202246 0.09993825821965856
deltaT = 1.438848920863309e-06
Time = 1.00719e-05

diagonal:  Solving for rho, Initial residual = 0, Final residual = 0, No Iterations 0
diagonal:  Solving for rhoUx, Initial residual = 0, Final residual = 0, No Iterations 0
diagonal:  Solving for rhoE, Initial residual = 0, Final residual = 0, No Iterations 0
ExecutionTime = 0.06 s  ClockTime = 0 s

fieldAverage fieldAverage write:
    Calculating averages

Mean and max Courant Numbers = 0.09993525047290312 0.09993929432674561
deltaT = 1.438848920863309e-06
Time = 1.15108e-05

diagonal:  Solving for rho, Initial residual = 0, Final residual = 0, No Iterations 0
diagonal:  Solving for rhoUx, Initial residual = 0, Final residual = 0, No Iterations 0
diagonal:  Solving for rhoE, Initial residual = 0, Final residual = 0, No Iterations 0
ExecutionTime = 0.07000000000000001 s  ClockTime = 0 s

fieldAverage fieldAverage write:
    Calculating averages

Mean and max Courant Numbers = 0.09993525247054162 0.0999404275286811
deltaT = 1.438848920863309e-06
Time = 1.29496e-05

diagonal:  Solving for rho, Initial residual = 0, Final residual = 0, No Iterations 0
diagonal:  Solving for rhoUx, Initial residual = 0, Final residual = 0, No Iterations 0
diagonal:  Solving for rhoE, Initial residual = 0, Final residual = 0, No Iterations 0
ExecutionTime = 0.07000000000000001 s  ClockTime = 0 s

fieldAverage fieldAverage write:
    Calculating averages

Mean and max Courant Numbers = 0.09993525468833274 0.09994163948187822
deltaT = 1.438848920863309e-06
Time = 1.43885e-05

diagonal:  Solving for rho, Initial residual = 0, Final residual = 0, No Iterations 0
diagonal:  Solving for rhoUx, Initial residual = 0, Final residual = 0, No Iterations 0
diagonal:  Solving for rhoE, Initial residual = 0, Final residual = 0, No Iterations 0
ExecutionTime = 0.07000000000000001 s  ClockTime = 0 s

fieldAverage fieldAverage write:
    Calculating averages

Mean and max Courant Numbers = 0.0999352571221787 0.0999429125693773
deltaT = 1.438848920863309e-06
Time = 1.58273e-05

diagonal:  Solving for rho, Initial residual = 0, Final residual = 0, No Iterations 0
diagonal:  Solving for rhoUx, Initial residual = 0, Final residual = 0, No Iterations 0
diagonal:  Solving for rhoE, Initial residual = 0, Final residual = 0, No Iterations 0
ExecutionTime = 0.07000000000000001 s  ClockTime = 0 s

fieldAverage fieldAverage write:
    Calculating averages

Mean and max Courant Numbers = 0.0999352597692523 0.09994422998031963
deltaT = 1.438848920863309e-06
Time = 1.72662e-05

diagonal:  Solving for rho, Initial residual = 0, Final residual = 0, No Iterations 0
diagonal:  Solving for rhoUx, Initial residual = 0, Final residual = 0, No Iterations 0
diagonal:  Solving for rhoE, Initial residual = 0, Final residual = 0, No Iterations 0
ExecutionTime = 0.07000000000000001 s  ClockTime = 0 s

fieldAverage fieldAverage write:
    Calculating averages

Mean and max Courant Numbers = 0.09993526262672828 0.09994557584225186
deltaT = 1.438848920863309e-06
Time = 1.8705e-05

diagonal:  Solving for rho, Initial residual = 0, Final residual = 0, No Iterations 0
diagonal:  Solving for rhoUx, Initial residual = 0, Final residual = 0, No Iterations 0
diagonal:  Solving for rhoE, Initial residual = 0, Final residual = 0, No Iterations 0
ExecutionTime = 0.07000000000000001 s  ClockTime = 0 s

fieldAverage fieldAverage write:
    Calculating averages

Mean and max Courant Numbers = 0.0999352656908231 0.09994693538176291
deltaT = 1.438848920863309e-06
Time = 2.01439e-05

diagonal:  Solving for rho, Initial residual = 0, Final residual = 0, No Iterations 0
diagonal:  Solving for rhoUx, Initial residual = 0, Final residual = 0, No Iterations 0
diagonal:  Solving for rhoE, Initial residual = 0, Final residual = 0, No Iterations 0
ExecutionTime = 0.07000000000000001 s  ClockTime = 0 s

fieldAverage fieldAverage write:
    Calculating averages

Mean and max Courant Numbers = 0.09993526896226897 0.09994829509510342
deltaT = 1.438848920863309e-06
Time = 2.15827e-05

diagonal:  Solving for rho, Initial residual = 0, Final residual = 0, No Iterations 0
diagonal:  Solving for rhoUx, Initial residual = 0, Final residual = 0, No Iterations 0
diagonal:  Solving for rhoE, Initial residual = 0, Final residual = 0, No Iterations 0
ExecutionTime = 0.07000000000000001 s  ClockTime = 0 s

fieldAverage fieldAverage write:
    Calculating averages

Mean and max Courant Numbers = 0.09993527245821096 0.09994964291266138
deltaT = 1.438848920863309e-06
Time = 2.30216e-05

diagonal:  Solving for rho, Initial residual = 0, Final residual = 0, No Iterations 0
diagonal:  Solving for rhoUx, Initial residual = 0, Final residual = 0, No Iterations 0
diagonal:  Solving for rhoE, Initial residual = 0, Final residual = 0, No Iterations 0
ExecutionTime = 0.07000000000000001 s  ClockTime = 0 s

fieldAverage fieldAverage write:
    Calculating averages

Mean and max Courant Numbers = 0.09993527614318862 0.09995096834188773
deltaT = 1.438848920863309e-06
Time = 2.44604e-05

diagonal:  Solving for rho, Initial residual = 0, Final residual = 0, No Iterations 0
diagonal:  Solving for rhoUx, Initial residual = 0, Final residual = 0, No Iterations 0
diagonal:  Solving for rhoE, Initial residual = 0, Final residual = 0, No Iterations 0
ExecutionTime = 0.08 s  ClockTime = 0 s

fieldAverage fieldAverage write:
    Calculating averages

Mean and max Courant Numbers = 0.09993528000771035 0.09995226257430982
deltaT = 1.438848920863309e-06
Time = 2.58993e-05

diagonal:  Solving for rho, Initial residual = 0, Final residual = 0, No Iterations 0
diagonal:  Solving for rhoUx, Initial residual = 0, Final residual = 0, No Iterations 0
diagonal:  Solving for rhoE, Initial residual = 0, Final residual = 0, No Iterations 0
ExecutionTime = 0.08 s  ClockTime = 0 s

fieldAverage fieldAverage write:
    Calculating averages

Mean and max Courant Numbers = 0.09993528404295894 0.09995351854493544
deltaT = 1.438848920863309e-06
Time = 2.73381e-05

diagonal:  Solving for rho, Initial residual = 0, Final residual = 0, No Iterations 0
diagonal:  Solving for rhoUx, Initial residual = 0, Final residual = 0, No Iterations 0
diagonal:  Solving for rhoE, Initial residual = 0, Final residual = 0, No Iterations 0
ExecutionTime = 0.08 s  ClockTime = 0 s

fieldAverage fieldAverage write:
    Calculating averages

Mean and max Courant Numbers = 0.09993528824102958 0.09995473093600886
deltaT = 1.438848920863309e-06
Time = 2.8777e-05

diagonal:  Solving for rho, Initial residual = 0, Final residual = 0, No Iterations 0
diagonal:  Solving for rhoUx, Initial residual = 0, Final residual = 0, No Iterations 0
diagonal:  Solving for rhoE, Initial residual = 0, Final residual = 0, No Iterations 0
ExecutionTime = 0.08 s  ClockTime = 0 s

fieldAverage fieldAverage write:
    Calculating averages

Mean and max Courant Numbers = 0.09993529259512539 0.0999558961220309
deltaT = 1.438848920863309e-06
Time = 3.02158e-05

diagonal:  Solving for rho, Initial residual = 0, Final residual = 0, No Iterations 0
diagonal:  Solving for rhoUx, Initial residual = 0, Final residual = 0, No Iterations 0
diagonal:  Solving for rhoE, Initial residual = 0, Final residual = 0, No Iterations 0
ExecutionTime = 0.08 s  ClockTime = 0 s

fieldAverage fieldAverage write:
    Calculating averages

Mean and max Courant Numbers = 0.09993529709987121 0.09995701205796723
deltaT = 1.438848920863309e-06
Time = 3.16547e-05

diagonal:  Solving for rho, Initial residual = 0, Final residual = 0, No Iterations 0
diagonal:  Solving for rhoUx, Initial residual = 0, Final residual = 0, No Iterations 0
diagonal:  Solving for rhoE, Initial residual = 0, Final residual = 0, No Iterations 0
ExecutionTime = 0.08 s  ClockTime = 0 s

fieldAverage fieldAverage write:
    Calculating averages

Mean and max Courant Numbers = 0.0999353017516504 0.09995807811719606
deltaT = 1.438848920863309e-06
Time = 3.30935e-05

diagonal:  Solving for rho, Initial residual = 0, Final residual = 0, No Iterations 0
diagonal:  Solving for rhoUx, Initial residual = 0, Final residual = 0, No Iterations 0
diagonal:  Solving for rhoE, Initial residual = 0, Final residual = 0, No Iterations 0
ExecutionTime = 0.08 s  ClockTime = 0 s

fieldAverage fieldAverage write:
    Calculating averages

Mean and max Courant Numbers = 0.09993530654868378 0.09995909488946832
deltaT = 1.438848920863309e-06
Time = 3.45324e-05

diagonal:  Solving for rho, Initial residual = 0, Final residual = 0, No Iterations 0
diagonal:  Solving for rhoUx, Initial residual = 0, Final residual = 0, No Iterations 0
diagonal:  Solving for rhoE, Initial residual = 0, Final residual = 0, No Iterations 0
ExecutionTime = 0.08 s  ClockTime = 0 s

fieldAverage fieldAverage write:
    Calculating averages

Mean and max Courant Numbers = 0.09993531149066619 0.09996006395166618
deltaT = 1.438848920863309e-06
Time = 3.59712e-05

diagonal:  Solving for rho, Initial residual = 0, Final residual = 0, No Iterations 0
diagonal:  Solving for rhoUx, Initial residual = 0, Final residual = 0, No Iterations 0
diagonal:  Solving for rhoE, Initial residual = 0, Final residual = 0, No Iterations 0
ExecutionTime = 0.09 s  ClockTime = 0 s

fieldAverage fieldAverage write:
    Calculating averages

Mean and max Courant Numbers = 0.09993531657809467 0.09996098762531307
deltaT = 1.438848920863309e-06
Time = 3.74101e-05

diagonal:  Solving for rho, Initial residual = 0, Final residual = 0, No Iterations 0
diagonal:  Solving for rhoUx, Initial residual = 0, Final residual = 0, No Iterations 0
diagonal:  Solving for rhoE, Initial residual = 0, Final residual = 0, No Iterations 0
ExecutionTime = 0.09 s  ClockTime = 0 s

fieldAverage fieldAverage write:
    Calculating averages

Mean and max Courant Numbers = 0.09993532181166868 0.09996186873461801
deltaT = 1.438848920863309e-06
Time = 3.88489e-05

diagonal:  Solving for rho, Initial residual = 0, Final residual = 0, No Iterations 0
diagonal:  Solving for rhoUx, Initial residual = 0, Final residual = 0, No Iterations 0
diagonal:  Solving for rhoE, Initial residual = 0, Final residual = 0, No Iterations 0
ExecutionTime = 0.09 s  ClockTime = 0 s

fieldAverage fieldAverage write:
    Calculating averages

Mean and max Courant Numbers = 0.09993532719205506 0.09996271037750432
deltaT = 1.438848920863309e-06
Time = 4.02878e-05

diagonal:  Solving for rho, Initial residual = 0, Final residual = 0, No Iterations 0
diagonal:  Solving for rhoUx, Initial residual = 0, Final residual = 0, No Iterations 0
diagonal:  Solving for rhoE, Initial residual = 0, Final residual = 0, No Iterations 0
ExecutionTime = 0.1 s  ClockTime = 0 s

fieldAverage fieldAverage write:
    Calculating averages

Mean and max Courant Numbers = 0.09993533271994358 0.09996351571985272
deltaT = 1.438848920863309e-06
Time = 4.17266e-05

diagonal:  Solving for rho, Initial residual = 0, Final residual = 0, No Iterations 0
diagonal:  Solving for rhoUx, Initial residual = 0, Final residual = 0, No Iterations 0
diagonal:  Solving for rhoE, Initial residual = 0, Final residual = 0, No Iterations 0
ExecutionTime = 0.1 s  ClockTime = 0 s

fieldAverage fieldAverage write:
    Calculating averages

Mean and max Courant Numbers = 0.0999353383960301 0.09996428782044733
deltaT = 1.438848920863309e-06
Time = 4.31655e-05

diagonal:  Solving for rho, Initial residual = 0, Final residual = 0, No Iterations 0
diagonal:  Solving for rhoUx, Initial residual = 0, Final residual = 0, No Iterations 0
diagonal:  Solving for rhoE, Initial residual = 0, Final residual = 0, No Iterations 0
ExecutionTime = 0.1 s  ClockTime = 0 s

fieldAverage fieldAverage write:
    Calculating averages

Mean and max Courant Numbers = 0.0999353442206701 0.09996502949120002
deltaT = 1.438848920863309e-06
Time = 4.46043e-05

diagonal:  Solving for rho, Initial residual = 0, Final residual = 0, No Iterations 0
diagonal:  Solving for rhoUx, Initial residual = 0, Final residual = 0, No Iterations 0
diagonal:  Solving for rhoE, Initial residual = 0, Final residual = 0, No Iterations 0
ExecutionTime = 0.1 s  ClockTime = 0 s

fieldAverage fieldAverage write:
    Calculating averages

Mean and max Courant Numbers = 0.09993535019336187 0.09996574319445344
deltaT = 1.438848920863309e-06
Time = 4.60432e-05

diagonal:  Solving for rho, Initial residual = 0, Final residual = 0, No Iterations 0
diagonal:  Solving for rhoUx, Initial residual = 0, Final residual = 0, No Iterations 0
diagonal:  Solving for rhoE, Initial residual = 0, Final residual = 0, No Iterations 0
ExecutionTime = 0.1 s  ClockTime = 0 s

fieldAverage fieldAverage write:
    Calculating averages

Mean and max Courant Numbers = 0.09993535633645885 0.09996643097672525
deltaT = 1.438848920863309e-06
Time = 4.7482e-05

diagonal:  Solving for rho, Initial residual = 0, Final residual = 0, No Iterations 0
diagonal:  Solving for rhoUx, Initial residual = 0, Final residual = 0, No Iterations 0
diagonal:  Solving for rhoE, Initial residual = 0, Final residual = 0, No Iterations 0
ExecutionTime = 0.1 s  ClockTime = 0 s

fieldAverage fieldAverage write:
    Calculating averages

Mean and max Courant Numbers = 0.09993536262063459 0.09996709443627583
deltaT = 1.438848920863309e-06
Time = 4.89209e-05

diagonal:  Solving for rho, Initial residual = 0, Final residual = 0, No Iterations 0
diagonal:  Solving for rhoUx, Initial residual = 0, Final residual = 0, No Iterations 0
diagonal:  Solving for rhoE, Initial residual = 0, Final residual = 0, No Iterations 0
ExecutionTime = 0.1 s  ClockTime = 0 s

fieldAverage fieldAverage write:
    Calculating averages

Mean and max Courant Numbers = 0.09993536906154887 0.09996773472040034
deltaT = 1.438848920863309e-06
Time = 5.03597e-05

diagonal:  Solving for rho, Initial residual = 0, Final residual = 0, No Iterations 0
diagonal:  Solving for rhoUx, Initial residual = 0, Final residual = 0, No Iterations 0
diagonal:  Solving for rhoE, Initial residual = 0, Final residual = 0, No Iterations 0
ExecutionTime = 0.1 s  ClockTime = 0 s

fieldAverage fieldAverage write:
    Calculating averages

Mean and max Courant Numbers = 0.09993537563130314 0.09996835254735013
deltaT = 1.438848920863309e-06
Time = 5.17986e-05

diagonal:  Solving for rho, Initial residual = 0, Final residual = 0, No Iterations 0
diagonal:  Solving for rhoUx, Initial residual = 0, Final residual = 0, No Iterations 0
diagonal:  Solving for rhoE, Initial residual = 0, Final residual = 0, No Iterations 0
ExecutionTime = 0.11 s  ClockTime = 0 s

fieldAverage fieldAverage write:
    Calculating averages

Mean and max Courant Numbers = 0.0999353823278296 0.09996894824726392
deltaT = 1.438848920863309e-06
Time = 5.32374e-05

diagonal:  Solving for rho, Initial residual = 0, Final residual = 0, No Iterations 0
diagonal:  Solving for rhoUx, Initial residual = 0, Final residual = 0, No Iterations 0
diagonal:  Solving for rhoE, Initial residual = 0, Final residual = 0, No Iterations 0
ExecutionTime = 0.11 s  ClockTime = 0 s

fieldAverage fieldAverage write:
    Calculating averages

Mean and max Courant Numbers = 0.09993538914903716 0.09996952181636397
deltaT = 1.438848920863309e-06
Time = 5.46763e-05

diagonal:  Solving for rho, Initial residual = 0, Final residual = 0, No Iterations 0
diagonal:  Solving for rhoUx, Initial residual = 0, Final residual = 0, No Iterations 0
diagonal:  Solving for rhoE, Initial residual = 0, Final residual = 0, No Iterations 0
ExecutionTime = 0.11 s  ClockTime = 0 s

fieldAverage fieldAverage write:
    Calculating averages

Mean and max Courant Numbers = 0.09993539609181759 0.0999700729789131
deltaT = 1.438848920863309e-06
Time = 5.61151e-05

diagonal:  Solving for rho, Initial residual = 0, Final residual = 0, No Iterations 0
diagonal:  Solving for rhoUx, Initial residual = 0, Final residual = 0, No Iterations 0
diagonal:  Solving for rhoE, Initial residual = 0, Final residual = 0, No Iterations 0
ExecutionTime = 0.11 s  ClockTime = 0 s

fieldAverage fieldAverage write:
    Calculating averages

Mean and max Courant Numbers = 0.09993540315245333 0.09997060125194897
deltaT = 1.438848920863309e-06
Time = 5.7554e-05

diagonal:  Solving for rho, Initial residual = 0, Final residual = 0, No Iterations 0
diagonal:  Solving for rhoUx, Initial residual = 0, Final residual = 0, No Iterations 0
diagonal:  Solving for rhoE, Initial residual = 0, Final residual = 0, No Iterations 0
ExecutionTime = 0.11 s  ClockTime = 0 s

fieldAverage fieldAverage write:
    Calculating averages

Mean and max Courant Numbers = 0.09993541032719919 0.09997110600854729
deltaT = 1.438848920863309e-06
Time = 5.89928e-05

diagonal:  Solving for rho, Initial residual = 0, Final residual = 0, No Iterations 0
diagonal:  Solving for rhoUx, Initial residual = 0, Final residual = 0, No Iterations 0
diagonal:  Solving for rhoE, Initial residual = 0, Final residual = 0, No Iterations 0
ExecutionTime = 0.11 s  ClockTime = 0 s

fieldAverage fieldAverage write:
    Calculating averages

Mean and max Courant Numbers = 0.09993541761232357 0.09997158653623472
deltaT = 1.438848920863309e-06
Time = 6.04317e-05

diagonal:  Solving for rho, Initial residual = 0, Final residual = 0, No Iterations 0
diagonal:  Solving for rhoUx, Initial residual = 0, Final residual = 0, No Iterations 0
diagonal:  Solving for rhoE, Initial residual = 0, Final residual = 0, No Iterations 0
ExecutionTime = 0.11 s  ClockTime = 0 s

fieldAverage fieldAverage write:
    Calculating averages

Mean and max Courant Numbers = 0.09993542500351263 0.09997204208809592
deltaT = 1.438848920863309e-06
Time = 6.18705e-05

diagonal:  Solving for rho, Initial residual = 0, Final residual = 0, No Iterations 0
diagonal:  Solving for rhoUx, Initial residual = 0, Final residual = 0, No Iterations 0
diagonal:  Solving for rhoE, Initial residual = 0, Final residual = 0, No Iterations 0
ExecutionTime = 0.11 s  ClockTime = 0 s

fieldAverage fieldAverage write:
    Calculating averages

Mean and max Courant Numbers = 0.0999354324953251 0.09997247192503708
deltaT = 1.438848920863309e-06
Time = 6.33094e-05

diagonal:  Solving for rho, Initial residual = 0, Final residual = 0, No Iterations 0
diagonal:  Solving for rhoUx, Initial residual = 0, Final residual = 0, No Iterations 0
diagonal:  Solving for rhoE, Initial residual = 0, Final residual = 0, No Iterations 0
ExecutionTime = 0.11 s  ClockTime = 0 s

fieldAverage fieldAverage write:
    Calculating averages

Mean and max Courant Numbers = 0.09993544008142165 0.09997287534851237
deltaT = 1.438848920863309e-06
Time = 6.47482e-05

diagonal:  Solving for rho, Initial residual = 0, Final residual = 0, No Iterations 0
diagonal:  Solving for rhoUx, Initial residual = 0, Final residual = 0, No Iterations 0
diagonal:  Solving for rhoE, Initial residual = 0, Final residual = 0, No Iterations 0
ExecutionTime = 0.11 s  ClockTime = 0 s

fieldAverage fieldAverage write:
    Calculating averages

Mean and max Courant Numbers = 0.09993544775546255 0.09997325172375586
deltaT = 1.438848920863309e-06
Time = 6.61871e-05

diagonal:  Solving for rho, Initial residual = 0, Final residual = 0, No Iterations 0
diagonal:  Solving for rhoUx, Initial residual = 0, Final residual = 0, No Iterations 0
diagonal:  Solving for rhoE, Initial residual = 0, Final residual = 0, No Iterations 0
ExecutionTime = 0.12 s  ClockTime = 0 s

fieldAverage fieldAverage write:
    Calculating averages

Mean and max Courant Numbers = 0.09993545553345363 0.09997377129863538
deltaT = 1.438848920863309e-06
Time = 6.76259e-05

diagonal:  Solving for rho, Initial residual = 0, Final residual = 0, No Iterations 0
diagonal:  Solving for rhoUx, Initial residual = 0, Final residual = 0, No Iterations 0
diagonal:  Solving for rhoE, Initial residual = 0, Final residual = 0, No Iterations 0
ExecutionTime = 0.12 s  ClockTime = 0 s

fieldAverage fieldAverage write:
    Calculating averages

Mean and max Courant Numbers = 0.09993546338262736 0.09997426775560542
deltaT = 1.438848920863309e-06
Time = 6.90647e-05

diagonal:  Solving for rho, Initial residual = 0, Final residual = 0, No Iterations 0
diagonal:  Solving for rhoUx, Initial residual = 0, Final residual = 0, No Iterations 0
diagonal:  Solving for rhoE, Initial residual = 0, Final residual = 0, No Iterations 0
ExecutionTime = 0.12 s  ClockTime = 0 s

fieldAverage fieldAverage write:
    Calculating averages

Mean and max Courant Numbers = 0.09993547129382584 0.09997473530278239
deltaT = 1.438848920863309e-06
Time = 7.05036e-05

diagonal:  Solving for rho, Initial residual = 0, Final residual = 0, No Iterations 0
diagonal:  Solving for rhoUx, Initial residual = 0, Final residual = 0, No Iterations 0
diagonal:  Solving for rhoE, Initial residual = 0, Final residual = 0, No Iterations 0
ExecutionTime = 0.12 s  ClockTime = 0 s

fieldAverage fieldAverage write:
    Calculating averages

Mean and max Courant Numbers = 0.0999354792626322 0.09997517356996481
deltaT = 1.438848920863309e-06
Time = 7.19424e-05

diagonal:  Solving for rho, Initial residual = 0, Final residual = 0, No Iterations 0
diagonal:  Solving for rhoUx, Initial residual = 0, Final residual = 0, No Iterations 0
diagonal:  Solving for rhoE, Initial residual = 0, Final residual = 0, No Iterations 0
ExecutionTime = 0.12 s  ClockTime = 0 s

fieldAverage fieldAverage write:
    Calculating averages

Mean and max Courant Numbers = 0.09993548728407975 0.09997558222312719
deltaT = 1.438848920863309e-06
Time = 7.33813e-05

diagonal:  Solving for rho, Initial residual = 0, Final residual = 0, No Iterations 0
diagonal:  Solving for rhoUx, Initial residual = 0, Final residual = 0, No Iterations 0
diagonal:  Solving for rhoE, Initial residual = 0, Final residual = 0, No Iterations 0
ExecutionTime = 0.12 s  ClockTime = 0 s

fieldAverage fieldAverage write:
    Calculating averages

Mean and max Courant Numbers = 0.09993549536327766 0.09997596096413695
deltaT = 1.438848920863309e-06
Time = 7.48201e-05

diagonal:  Solving for rho, Initial residual = 0, Final residual = 0, No Iterations 0
diagonal:  Solving for rhoUx, Initial residual = 0, Final residual = 0, No Iterations 0
diagonal:  Solving for rhoE, Initial residual = 0, Final residual = 0, No Iterations 0
ExecutionTime = 0.12 s  ClockTime = 0 s

fieldAverage fieldAverage write:
    Calculating averages

Mean and max Courant Numbers = 0.09993550349932837 0.09997630952895878
deltaT = 1.438848920863309e-06
Time = 7.6259e-05

diagonal:  Solving for rho, Initial residual = 0, Final residual = 0, No Iterations 0
diagonal:  Solving for rhoUx, Initial residual = 0, Final residual = 0, No Iterations 0
diagonal:  Solving for rhoE, Initial residual = 0, Final residual = 0, No Iterations 0
ExecutionTime = 0.12 s  ClockTime = 0 s

fieldAverage fieldAverage write:
    Calculating averages

Mean and max Courant Numbers = 0.09993551166410149 0.09997662768483005
deltaT = 1.438848920863309e-06
Time = 7.76978e-05

diagonal:  Solving for rho, Initial residual = 0, Final residual = 0, No Iterations 0
diagonal:  Solving for rhoUx, Initial residual = 0, Final residual = 0, No Iterations 0
diagonal:  Solving for rhoE, Initial residual = 0, Final residual = 0, No Iterations 0
ExecutionTime = 0.13 s  ClockTime = 0 s

fieldAverage fieldAverage write:
    Calculating averages

Mean and max Courant Numbers = 0.09993551985497441 0.09997691522685137
deltaT = 1.438848920863309e-06
Time = 7.91367e-05

diagonal:  Solving for rho, Initial residual = 0, Final residual = 0, No Iterations 0
diagonal:  Solving for rhoUx, Initial residual = 0, Final residual = 0, No Iterations 0
diagonal:  Solving for rhoE, Initial residual = 0, Final residual = 0, No Iterations 0
ExecutionTime = 0.13 s  ClockTime = 0 s

fieldAverage fieldAverage write:
    Calculating averages

Mean and max Courant Numbers = 0.09993552807003196 0.09997717197437313
deltaT = 1.438848920863309e-06
Time = 8.05755e-05

diagonal:  Solving for rho, Initial residual = 0, Final residual = 0, No Iterations 0
diagonal:  Solving for rhoUx, Initial residual = 0, Final residual = 0, No Iterations 0
diagonal:  Solving for rhoE, Initial residual = 0, Final residual = 0, No Iterations 0
ExecutionTime = 0.13 s  ClockTime = 0 s

fieldAverage fieldAverage write:
    Calculating averages

Mean and max Courant Numbers = 0.09993553632235309 0.09997739776747144
deltaT = 1.438848920863309e-06
Time = 8.20144e-05

diagonal:  Solving for rho, Initial residual = 0, Final residual = 0, No Iterations 0
diagonal:  Solving for rhoUx, Initial residual = 0, Final residual = 0, No Iterations 0
diagonal:  Solving for rhoE, Initial residual = 0, Final residual = 0, No Iterations 0
ExecutionTime = 0.13 s  ClockTime = 0 s

fieldAverage fieldAverage write:
    Calculating averages

Mean and max Courant Numbers = 0.09993554460270579 0.09997759246370612
deltaT = 1.438848920863309e-06
Time = 8.34532e-05

diagonal:  Solving for rho, Initial residual = 0, Final residual = 0, No Iterations 0
diagonal:  Solving for rhoUx, Initial residual = 0, Final residual = 0, No Iterations 0
diagonal:  Solving for rhoE, Initial residual = 0, Final residual = 0, No Iterations 0
ExecutionTime = 0.13 s  ClockTime = 0 s

fieldAverage fieldAverage write:
    Calculating averages

Mean and max Courant Numbers = 0.09993555287843807 0.09997775593524062
deltaT = 1.438848920863309e-06
Time = 8.48921e-05

diagonal:  Solving for rho, Initial residual = 0, Final residual = 0, No Iterations 0
diagonal:  Solving for rhoUx, Initial residual = 0, Final residual = 0, No Iterations 0
diagonal:  Solving for rhoE, Initial residual = 0, Final residual = 0, No Iterations 0
ExecutionTime = 0.13 s  ClockTime = 0 s

fieldAverage fieldAverage write:
    Calculating averages

Mean and max Courant Numbers = 0.09993556115022031 0.0999778880662799
deltaT = 1.438848920863309e-06
Time = 8.63309e-05

diagonal:  Solving for rho, Initial residual = 0, Final residual = 0, No Iterations 0
diagonal:  Solving for rhoUx, Initial residual = 0, Final residual = 0, No Iterations 0
diagonal:  Solving for rhoE, Initial residual = 0, Final residual = 0, No Iterations 0
ExecutionTime = 0.13 s  ClockTime = 0 s

fieldAverage fieldAverage write:
    Calculating averages

Mean and max Courant Numbers = 0.09993556942058988 0.0999779887506312
deltaT = 1.438848920863309e-06
Time = 8.77698e-05

diagonal:  Solving for rho, Initial residual = 0, Final residual = 0, No Iterations 0
diagonal:  Solving for rhoUx, Initial residual = 0, Final residual = 0, No Iterations 0
diagonal:  Solving for rhoE, Initial residual = 0, Final residual = 0, No Iterations 0
ExecutionTime = 0.13 s  ClockTime = 0 s

fieldAverage fieldAverage write:
    Calculating averages

Mean and max Courant Numbers = 0.0999355776847158 0.09997805788900156
deltaT = 1.438848920863309e-06
Time = 8.92086e-05

diagonal:  Solving for rho, Initial residual = 0, Final residual = 0, No Iterations 0
diagonal:  Solving for rhoUx, Initial residual = 0, Final residual = 0, No Iterations 0
diagonal:  Solving for rhoE, Initial residual = 0, Final residual = 0, No Iterations 0
ExecutionTime = 0.13 s  ClockTime = 0 s

fieldAverage fieldAverage write:
    Calculating averages

Mean and max Courant Numbers = 0.09993558596373912 0.09997809538534511
deltaT = 1.438848920863309e-06
Time = 9.06475e-05

diagonal:  Solving for rho, Initial residual = 0, Final residual = 0, No Iterations 0
diagonal:  Solving for rhoUx, Initial residual = 0, Final residual = 0, No Iterations 0
diagonal:  Solving for rhoE, Initial residual = 0, Final residual = 0, No Iterations 0
ExecutionTime = 0.14 s  ClockTime = 0 s

fieldAverage fieldAverage write:
    Calculating averages

Mean and max Courant Numbers = 0.09993559420531103 0.09997810114107065
deltaT = 1.438848920863309e-06
Time = 9.20863e-05

diagonal:  Solving for rho, Initial residual = 0, Final residual = 0, No Iterations 0
diagonal:  Solving for rhoUx, Initial residual = 0, Final residual = 0, No Iterations 0
diagonal:  Solving for rhoE, Initial residual = 0, Final residual = 0, No Iterations 0
ExecutionTime = 0.14 s  ClockTime = 0 s

fieldAverage fieldAverage write:
    Calculating averages

Mean and max Courant Numbers = 0.09993560241005624 0.09997807504505263
deltaT = 1.438848920863309e-06
Time = 9.35252e-05

diagonal:  Solving for rho, Initial residual = 0, Final residual = 0, No Iterations 0
diagonal:  Solving for rhoUx, Initial residual = 0, Final residual = 0, No Iterations 0
diagonal:  Solving for rhoE, Initial residual = 0, Final residual = 0, No Iterations 0
ExecutionTime = 0.14 s  ClockTime = 0 s

fieldAverage fieldAverage write:
    Calculating averages

Mean and max Courant Numbers = 0.09993561057698086 0.0999780169564201
deltaT = 1.438848920863309e-06
Time = 9.4964e-05

diagonal:  Solving for rho, Initial residual = 0, Final residual = 0, No Iterations 0
diagonal:  Solving for rhoUx, Initial residual = 0, Final residual = 0, No Iterations 0
diagonal:  Solving for rhoE, Initial residual = 0, Final residual = 0, No Iterations 0
ExecutionTime = 0.14 s  ClockTime = 0 s

fieldAverage fieldAverage write:
    Calculating averages

Mean and max Courant Numbers = 0.09993561871441896 0.09997792826813197
deltaT = 1.438848920863309e-06
Time = 9.64029e-05

diagonal:  Solving for rho, Initial residual = 0, Final residual = 0, No Iterations 0
diagonal:  Solving for rhoUx, Initial residual = 0, Final residual = 0, No Iterations 0
diagonal:  Solving for rhoE, Initial residual = 0, Final residual = 0, No Iterations 0
ExecutionTime = 0.14 s  ClockTime = 0 s

fieldAverage fieldAverage write:
    Calculating averages

Mean and max Courant Numbers = 0.09993562688747076 0.09997782194238398
deltaT = 1.438848920863309e-06
Time = 9.78417e-05

diagonal:  Solving for rho, Initial residual = 0, Final residual = 0, No Iterations 0
diagonal:  Solving for rhoUx, Initial residual = 0, Final residual = 0, No Iterations 0
diagonal:  Solving for rhoE, Initial residual = 0, Final residual = 0, No Iterations 0
ExecutionTime = 0.14 s  ClockTime = 0 s

fieldAverage fieldAverage write:
    Calculating averages

Mean and max Courant Numbers = 0.09993563506418202 0.09997780763108269
deltaT = 1.438848920863309e-06
Time = 9.92806e-05

diagonal:  Solving for rho, Initial residual = 0, Final residual = 0, No Iterations 0
diagonal:  Solving for rhoUx, Initial residual = 0, Final residual = 0, No Iterations 0
diagonal:  Solving for rhoE, Initial residual = 0, Final residual = 0, No Iterations 0
ExecutionTime = 0.14 s  ClockTime = 0 s

fieldAverage fieldAverage write:
    Calculating averages

Mean and max Courant Numbers = 0.09993564319521805 0.09997784673956828
deltaT = 1.438848920863309e-06
Time = 0.000100719

diagonal:  Solving for rho, Initial residual = 0, Final residual = 0, No Iterations 0
diagonal:  Solving for rhoUx, Initial residual = 0, Final residual = 0, No Iterations 0
diagonal:  Solving for rhoE, Initial residual = 0, Final residual = 0, No Iterations 0
ExecutionTime = 0.14 s  ClockTime = 0 s

fieldAverage fieldAverage write:
    Calculating averages

Mean and max Courant Numbers = 0.0999356512724477 0.09997786104521221
deltaT = 1.438848920863309e-06
Time = 0.000102158

diagonal:  Solving for rho, Initial residual = 0, Final residual = 0, No Iterations 0
diagonal:  Solving for rhoUx, Initial residual = 0, Final residual = 0, No Iterations 0
diagonal:  Solving for rhoE, Initial residual = 0, Final residual = 0, No Iterations 0
ExecutionTime = 0.14 s  ClockTime = 0 s

fieldAverage fieldAverage write:
    Calculating averages

Mean and max Courant Numbers = 0.09993565928167096 0.09997784673778722
deltaT = 1.438848920863309e-06
Time = 0.000103597

diagonal:  Solving for rho, Initial residual = 0, Final residual = 0, No Iterations 0
diagonal:  Solving for rhoUx, Initial residual = 0, Final residual = 0, No Iterations 0
diagonal:  Solving for rhoE, Initial residual = 0, Final residual = 0, No Iterations 0
ExecutionTime = 0.14 s  ClockTime = 0 s

fieldAverage fieldAverage write:
    Calculating averages

Mean and max Courant Numbers = 0.09993566724040313 0.09997779697388055
deltaT = 1.438848920863309e-06
Time = 0.000105036

diagonal:  Solving for rho, Initial residual = 0, Final residual = 0, No Iterations 0
diagonal:  Solving for rhoUx, Initial residual = 0, Final residual = 0, No Iterations 0
diagonal:  Solving for rhoE, Initial residual = 0, Final residual = 0, No Iterations 0
ExecutionTime = 0.14 s  ClockTime = 0 s

fieldAverage fieldAverage write:
    Calculating averages

Mean and max Courant Numbers = 0.09993567512179988 0.09997771646527756
deltaT = 1.438848920863309e-06
Time = 0.000106475

diagonal:  Solving for rho, Initial residual = 0, Final residual = 0, No Iterations 0
diagonal:  Solving for rhoUx, Initial residual = 0, Final residual = 0, No Iterations 0
diagonal:  Solving for rhoE, Initial residual = 0, Final residual = 0, No Iterations 0
ExecutionTime = 0.15 s  ClockTime = 0 s

fieldAverage fieldAverage write:
    Calculating averages

Mean and max Courant Numbers = 0.09993568292847069 0.09997761581449942
deltaT = 1.438848920863309e-06
Time = 0.000107914

diagonal:  Solving for rho, Initial residual = 0, Final residual = 0, No Iterations 0
diagonal:  Solving for rhoUx, Initial residual = 0, Final residual = 0, No Iterations 0
diagonal:  Solving for rhoE, Initial residual = 0, Final residual = 0, No Iterations 0
ExecutionTime = 0.15 s  ClockTime = 0 s

fieldAverage fieldAverage write:
    Calculating averages

Mean and max Courant Numbers = 0.09993569066693826 0.09997754789437796
deltaT = 1.438848920863309e-06
Time = 0.000109353

diagonal:  Solving for rho, Initial residual = 0, Final residual = 0, No Iterations 0
diagonal:  Solving for rhoUx, Initial residual = 0, Final residual = 0, No Iterations 0
diagonal:  Solving for rhoE, Initial residual = 0, Final residual = 0, No Iterations 0
ExecutionTime = 0.15 s  ClockTime = 0 s

fieldAverage fieldAverage write:
    Calculating averages

Mean and max Courant Numbers = 0.09993569829547641 0.0999775559915821
deltaT = 1.438848920863309e-06
Time = 0.000110791

diagonal:  Solving for rho, Initial residual = 0, Final residual = 0, No Iterations 0
diagonal:  Solving for rhoUx, Initial residual = 0, Final residual = 0, No Iterations 0
diagonal:  Solving for rhoE, Initial residual = 0, Final residual = 0, No Iterations 0
ExecutionTime = 0.15 s  ClockTime = 0 s

fieldAverage fieldAverage write:
    Calculating averages

Mean and max Courant Numbers = 0.09993570585398216 0.09997755162734626
deltaT = 1.438848920863309e-06
Time = 0.00011223

diagonal:  Solving for rho, Initial residual = 0, Final residual = 0, No Iterations 0
diagonal:  Solving for rhoUx, Initial residual = 0, Final residual = 0, No Iterations 0
diagonal:  Solving for rhoE, Initial residual = 0, Final residual = 0, No Iterations 0
ExecutionTime = 0.15 s  ClockTime = 0 s

fieldAverage fieldAverage write:
    Calculating averages

Mean and max Courant Numbers = 0.0999357133430039 0.09997752686114469
deltaT = 1.438848920863309e-06
Time = 0.000113669

diagonal:  Solving for rho, Initial residual = 0, Final residual = 0, No Iterations 0
diagonal:  Solving for rhoUx, Initial residual = 0, Final residual = 0, No Iterations 0
diagonal:  Solving for rhoE, Initial residual = 0, Final residual = 0, No Iterations 0
ExecutionTime = 0.15 s  ClockTime = 0 s

fieldAverage fieldAverage write:
    Calculating averages

Mean and max Courant Numbers = 0.09993572069804253 0.09997751329454325
deltaT = 1.438848920863309e-06
Time = 0.000115108

diagonal:  Solving for rho, Initial residual = 0, Final residual = 0, No Iterations 0
diagonal:  Solving for rhoUx, Initial residual = 0, Final residual = 0, No Iterations 0
diagonal:  Solving for rhoE, Initial residual = 0, Final residual = 0, No Iterations 0
ExecutionTime = 0.15 s  ClockTime = 0 s

fieldAverage fieldAverage write:
    Calculating averages

Mean and max Courant Numbers = 0.09993572787300607 0.09997752744904922
deltaT = 1.438848920863309e-06
Time = 0.000116547

diagonal:  Solving for rho, Initial residual = 0, Final residual = 0, No Iterations 0
diagonal:  Solving for rhoUx, Initial residual = 0, Final residual = 0, No Iterations 0
diagonal:  Solving for rhoE, Initial residual = 0, Final residual = 0, No Iterations 0
ExecutionTime = 0.15 s  ClockTime = 0 s

fieldAverage fieldAverage write:
    Calculating averages

Mean and max Courant Numbers = 0.09993573493294843 0.0999775306768191
deltaT = 1.438848920863309e-06
Time = 0.000117986

diagonal:  Solving for rho, Initial residual = 0, Final residual = 0, No Iterations 0
diagonal:  Solving for rhoUx, Initial residual = 0, Final residual = 0, No Iterations 0
diagonal:  Solving for rhoE, Initial residual = 0, Final residual = 0, No Iterations 0
ExecutionTime = 0.15 s  ClockTime = 0 s

fieldAverage fieldAverage write:
    Calculating averages

Mean and max Courant Numbers = 0.0999357419068049 0.09997752547921356
deltaT = 1.438848920863309e-06
Time = 0.000119424

diagonal:  Solving for rho, Initial residual = 0, Final residual = 0, No Iterations 0
diagonal:  Solving for rhoUx, Initial residual = 0, Final residual = 0, No Iterations 0
diagonal:  Solving for rhoE, Initial residual = 0, Final residual = 0, No Iterations 0
ExecutionTime = 0.16 s  ClockTime = 0 s

fieldAverage fieldAverage write:
    Calculating averages

Mean and max Courant Numbers = 0.09993574878455 0.09997748834506577
deltaT = 1.438848920863309e-06
Time = 0.000120863

diagonal:  Solving for rho, Initial residual = 0, Final residual = 0, No Iterations 0
diagonal:  Solving for rhoUx, Initial residual = 0, Final residual = 0, No Iterations 0
diagonal:  Solving for rhoE, Initial residual = 0, Final residual = 0, No Iterations 0
ExecutionTime = 0.16 s  ClockTime = 0 s

fieldAverage fieldAverage write:
    Calculating averages

Mean and max Courant Numbers = 0.09993575549071794 0.09997742462365181
deltaT = 1.438848920863309e-06
Time = 0.000122302

diagonal:  Solving for rho, Initial residual = 0, Final residual = 0, No Iterations 0
diagonal:  Solving for rhoUx, Initial residual = 0, Final residual = 0, No Iterations 0
diagonal:  Solving for rhoE, Initial residual = 0, Final residual = 0, No Iterations 0
ExecutionTime = 0.16 s  ClockTime = 0 s

fieldAverage fieldAverage write:
    Calculating averages

Mean and max Courant Numbers = 0.09993576207587733 0.09997738116791589
deltaT = 1.438848920863309e-06
Time = 0.000123741

diagonal:  Solving for rho, Initial residual = 0, Final residual = 0, No Iterations 0
diagonal:  Solving for rhoUx, Initial residual = 0, Final residual = 0, No Iterations 0
diagonal:  Solving for rhoE, Initial residual = 0, Final residual = 0, No Iterations 0
ExecutionTime = 0.16 s  ClockTime = 0 s

fieldAverage fieldAverage write:
    Calculating averages

Mean and max Courant Numbers = 0.09993576845182379 0.09997738742058346
deltaT = 1.438848920863309e-06
Time = 0.00012518

diagonal:  Solving for rho, Initial residual = 0, Final residual = 0, No Iterations 0
diagonal:  Solving for rhoUx, Initial residual = 0, Final residual = 0, No Iterations 0
diagonal:  Solving for rhoE, Initial residual = 0, Final residual = 0, No Iterations 0
ExecutionTime = 0.16 s  ClockTime = 0 s

fieldAverage fieldAverage write:
    Calculating averages

Mean and max Courant Numbers = 0.09993577467110631 0.09997738827621822
deltaT = 1.438848920863309e-06
Time = 0.000126619

diagonal:  Solving for rho, Initial residual = 0, Final residual = 0, No Iterations 0
diagonal:  Solving for rhoUx, Initial residual = 0, Final residual = 0, No Iterations 0
diagonal:  Solving for rhoE, Initial residual = 0, Final residual = 0, No Iterations 0
ExecutionTime = 0.16 s  ClockTime = 0 s

fieldAverage fieldAverage write:
    Calculating averages

Mean and max Courant Numbers = 0.09993578079071652 0.0999773794587871
deltaT = 1.438848920863309e-06
Time = 0.000128058

diagonal:  Solving for rho, Initial residual = 0, Final residual = 0, No Iterations 0
diagonal:  Solving for rhoUx, Initial residual = 0, Final residual = 0, No Iterations 0
diagonal:  Solving for rhoE, Initial residual = 0, Final residual = 0, No Iterations 0
ExecutionTime = 0.16 s  ClockTime = 0 s

fieldAverage fieldAverage write:
    Calculating averages

Mean and max Courant Numbers = 0.09993578674575671 0.09997738760257074
deltaT = 1.438848920863309e-06
Time = 0.000129496

diagonal:  Solving for rho, Initial residual = 0, Final residual = 0, No Iterations 0
diagonal:  Solving for rhoUx, Initial residual = 0, Final residual = 0, No Iterations 0
diagonal:  Solving for rhoE, Initial residual = 0, Final residual = 0, No Iterations 0
ExecutionTime = 0.16 s  ClockTime = 0 s

fieldAverage fieldAverage write:
    Calculating averages

Mean and max Courant Numbers = 0.099935792491571 0.0999773972131391
deltaT = 1.438848920863309e-06
Time = 0.000130935

diagonal:  Solving for rho, Initial residual = 0, Final residual = 0, No Iterations 0
diagonal:  Solving for rhoUx, Initial residual = 0, Final residual = 0, No Iterations 0
diagonal:  Solving for rhoE, Initial residual = 0, Final residual = 0, No Iterations 0
ExecutionTime = 0.16 s  ClockTime = 0 s

fieldAverage fieldAverage write:
    Calculating averages

Mean and max Courant Numbers = 0.09993579805389091 0.09997739556210625
deltaT = 1.438848920863309e-06
Time = 0.000132374

diagonal:  Solving for rho, Initial residual = 0, Final residual = 0, No Iterations 0
diagonal:  Solving for rhoUx, Initial residual = 0, Final residual = 0, No Iterations 0
diagonal:  Solving for rhoE, Initial residual = 0, Final residual = 0, No Iterations 0
ExecutionTime = 0.16 s  ClockTime = 0 s

fieldAverage fieldAverage write:
    Calculating averages

Mean and max Courant Numbers = 0.09993580343936435 0.09997738949250025
deltaT = 1.438848920863309e-06
Time = 0.000133813

diagonal:  Solving for rho, Initial residual = 0, Final residual = 0, No Iterations 0
diagonal:  Solving for rhoUx, Initial residual = 0, Final residual = 0, No Iterations 0
diagonal:  Solving for rhoE, Initial residual = 0, Final residual = 0, No Iterations 0
ExecutionTime = 0.17 s  ClockTime = 0 s

fieldAverage fieldAverage write:
    Calculating averages

Mean and max Courant Numbers = 0.09993580868528547 0.09997737840462541
deltaT = 1.438848920863309e-06
Time = 0.000135252

diagonal:  Solving for rho, Initial residual = 0, Final residual = 0, No Iterations 0
diagonal:  Solving for rhoUx, Initial residual = 0, Final residual = 0, No Iterations 0
diagonal:  Solving for rhoE, Initial residual = 0, Final residual = 0, No Iterations 0
ExecutionTime = 0.17 s  ClockTime = 0 s

fieldAverage fieldAverage write:
    Calculating averages

Mean and max Courant Numbers = 0.09993581375475606 0.09997736130307953
deltaT = 1.438848920863309e-06
Time = 0.000136691

diagonal:  Solving for rho, Initial residual = 0, Final residual = 0, No Iterations 0
diagonal:  Solving for rhoUx, Initial residual = 0, Final residual = 0, No Iterations 0
diagonal:  Solving for rhoE, Initial residual = 0, Final residual = 0, No Iterations 0
ExecutionTime = 0.17 s  ClockTime = 0 s

fieldAverage fieldAverage write:
    Calculating averages

Mean and max Courant Numbers = 0.09993581861169391 0.09997732647259085
deltaT = 1.438848920863309e-06
Time = 0.000138129

diagonal:  Solving for rho, Initial residual = 0, Final residual = 0, No Iterations 0
diagonal:  Solving for rhoUx, Initial residual = 0, Final residual = 0, No Iterations 0
diagonal:  Solving for rhoE, Initial residual = 0, Final residual = 0, No Iterations 0
ExecutionTime = 0.17 s  ClockTime = 0 s

fieldAverage fieldAverage write:
    Calculating averages

Mean and max Courant Numbers = 0.09993582324877852 0.09997731819346432
deltaT = 1.438848920863309e-06
Time = 0.000139568

diagonal:  Solving for rho, Initial residual = 0, Final residual = 0, No Iterations 0
diagonal:  Solving for rhoUx, Initial residual = 0, Final residual = 0, No Iterations 0
diagonal:  Solving for rhoE, Initial residual = 0, Final residual = 0, No Iterations 0
ExecutionTime = 0.18 s  ClockTime = 0 s

fieldAverage fieldAverage write:
    Calculating averages

Mean and max Courant Numbers = 0.09993582768322143 0.09997732080688101
deltaT = 1.438848920863309e-06
Time = 0.000141007

diagonal:  Solving for rho, Initial residual = 0, Final residual = 0, No Iterations 0
diagonal:  Solving for rhoUx, Initial residual = 0, Final residual = 0, No Iterations 0
diagonal:  Solving for rhoE, Initial residual = 0, Final residual = 0, No Iterations 0
ExecutionTime = 0.18 s  ClockTime = 0 s

fieldAverage fieldAverage write:
    Calculating averages

Mean and max Courant Numbers = 0.09993583193671679 0.09997732903868441
deltaT = 1.438848920863309e-06
Time = 0.000142446

diagonal:  Solving for rho, Initial residual = 0, Final residual = 0, No Iterations 0
diagonal:  Solving for rhoUx, Initial residual = 0, Final residual = 0, No Iterations 0
diagonal:  Solving for rhoE, Initial residual = 0, Final residual = 0, No Iterations 0
ExecutionTime = 0.18 s  ClockTime = 0 s

fieldAverage fieldAverage write:
    Calculating averages

Mean and max Courant Numbers = 0.09993583602726301 0.09997735123050783
deltaT = 1.438848920863309e-06
Time = 0.000143885

diagonal:  Solving for rho, Initial residual = 0, Final residual = 0, No Iterations 0
diagonal:  Solving for rhoUx, Initial residual = 0, Final residual = 0, No Iterations 0
diagonal:  Solving for rhoE, Initial residual = 0, Final residual = 0, No Iterations 0
ExecutionTime = 0.18 s  ClockTime = 0 s

fieldAverage fieldAverage write:
    Calculating averages

Mean and max Courant Numbers = 0.09993583989386991 0.09997736524877997
deltaT = 1.438848920863309e-06
Time = 0.000145324

diagonal:  Solving for rho, Initial residual = 0, Final residual = 0, No Iterations 0
diagonal:  Solving for rhoUx, Initial residual = 0, Final residual = 0, No Iterations 0
diagonal:  Solving for rhoE, Initial residual = 0, Final residual = 0, No Iterations 0
ExecutionTime = 0.18 s  ClockTime = 0 s

fieldAverage fieldAverage write:
    Calculating averages

Mean and max Courant Numbers = 0.09993584353755579 0.09997737327786026
deltaT = 1.438848920863309e-06
Time = 0.000146763

diagonal:  Solving for rho, Initial residual = 0, Final residual = 0, No Iterations 0
diagonal:  Solving for rhoUx, Initial residual = 0, Final residual = 0, No Iterations 0
diagonal:  Solving for rhoE, Initial residual = 0, Final residual = 0, No Iterations 0
ExecutionTime = 0.18 s  ClockTime = 0 s

fieldAverage fieldAverage write:
    Calculating averages

Mean and max Courant Numbers = 0.09993584694602199 0.09997737552731371
deltaT = 1.438848920863309e-06
Time = 0.000148201

diagonal:  Solving for rho, Initial residual = 0, Final residual = 0, No Iterations 0
diagonal:  Solving for rhoUx, Initial residual = 0, Final residual = 0, No Iterations 0
diagonal:  Solving for rhoE, Initial residual = 0, Final residual = 0, No Iterations 0
ExecutionTime = 0.19 s  ClockTime = 0 s

fieldAverage fieldAverage write:
    Calculating averages

Mean and max Courant Numbers = 0.09993585011815141 0.09997736824220438
deltaT = 1.438848920863309e-06
Time = 0.00014964

diagonal:  Solving for rho, Initial residual = 0, Final residual = 0, No Iterations 0
diagonal:  Solving for rhoUx, Initial residual = 0, Final residual = 0, No Iterations 0
diagonal:  Solving for rhoE, Initial residual = 0, Final residual = 0, No Iterations 0
ExecutionTime = 0.19 s  ClockTime = 0 s

fieldAverage fieldAverage write:
    Calculating averages

Mean and max Courant Numbers = 0.09993585317730003 0.09997735627855421
deltaT = 1.438848920863309e-06
Time = 0.000151079

diagonal:  Solving for rho, Initial residual = 0, Final residual = 0, No Iterations 0
diagonal:  Solving for rhoUx, Initial residual = 0, Final residual = 0, No Iterations 0
diagonal:  Solving for rhoE, Initial residual = 0, Final residual = 0, No Iterations 0
ExecutionTime = 0.19 s  ClockTime = 0 s

fieldAverage fieldAverage write:
    Calculating averages

Mean and max Courant Numbers = 0.0999358559764396 0.09997733620708278
deltaT = 1.438848920863309e-06
Time = 0.000152518

diagonal:  Solving for rho, Initial residual = 0, Final residual = 0, No Iterations 0
diagonal:  Solving for rhoUx, Initial residual = 0, Final residual = 0, No Iterations 0
diagonal:  Solving for rhoE, Initial residual = 0, Final residual = 0, No Iterations 0
ExecutionTime = 0.19 s  ClockTime = 0 s

fieldAverage fieldAverage write:
    Calculating averages

Mean and max Courant Numbers = 0.09993585853488315 0.09997732004887723
deltaT = 1.438848920863309e-06
Time = 0.000153957

diagonal:  Solving for rho, Initial residual = 0, Final residual = 0, No Iterations 0
diagonal:  Solving for rhoUx, Initial residual = 0, Final residual = 0, No Iterations 0
diagonal:  Solving for rhoE, Initial residual = 0, Final residual = 0, No Iterations 0
ExecutionTime = 0.19 s  ClockTime = 0 s

fieldAverage fieldAverage write:
    Calculating averages

Mean and max Courant Numbers = 0.09993586085134652 0.09997732127957872
deltaT = 1.438848920863309e-06
Time = 0.000155396

diagonal:  Solving for rho, Initial residual = 0, Final residual = 0, No Iterations 0
diagonal:  Solving for rhoUx, Initial residual = 0, Final residual = 0, No Iterations 0
diagonal:  Solving for rhoE, Initial residual = 0, Final residual = 0, No Iterations 0
ExecutionTime = 0.19 s  ClockTime = 0 s

fieldAverage fieldAverage write:
    Calculating averages

Mean and max Courant Numbers = 0.09993586291598698 0.09997732219559952
deltaT = 1.438848920863309e-06
Time = 0.000156835

diagonal:  Solving for rho, Initial residual = 0, Final residual = 0, No Iterations 0
diagonal:  Solving for rhoUx, Initial residual = 0, Final residual = 0, No Iterations 0
diagonal:  Solving for rhoE, Initial residual = 0, Final residual = 0, No Iterations 0
ExecutionTime = 0.19 s  ClockTime = 0 s

fieldAverage fieldAverage write:
    Calculating averages

Mean and max Courant Numbers = 0.09993586480707319 0.09997734381834546
deltaT = 1.438848920863309e-06
Time = 0.000158273

diagonal:  Solving for rho, Initial residual = 0, Final residual = 0, No Iterations 0
diagonal:  Solving for rhoUx, Initial residual = 0, Final residual = 0, No Iterations 0
diagonal:  Solving for rhoE, Initial residual = 0, Final residual = 0, No Iterations 0
ExecutionTime = 0.19 s  ClockTime = 0 s

fieldAverage fieldAverage write:
    Calculating averages

Mean and max Courant Numbers = 0.09993586650444916 0.09997735753235254
deltaT = 1.438848920863309e-06
Time = 0.000159712

diagonal:  Solving for rho, Initial residual = 0, Final residual = 0, No Iterations 0
diagonal:  Solving for rhoUx, Initial residual = 0, Final residual = 0, No Iterations 0
diagonal:  Solving for rhoE, Initial residual = 0, Final residual = 0, No Iterations 0
ExecutionTime = 0.19 s  ClockTime = 0 s

fieldAverage fieldAverage write:
    Calculating averages

Mean and max Courant Numbers = 0.09993586796408536 0.09997736648132988
deltaT = 1.438848920863309e-06
Time = 0.000161151

diagonal:  Solving for rho, Initial residual = 0, Final residual = 0, No Iterations 0
diagonal:  Solving for rhoUx, Initial residual = 0, Final residual = 0, No Iterations 0
diagonal:  Solving for rhoE, Initial residual = 0, Final residual = 0, No Iterations 0
ExecutionTime = 0.19 s  ClockTime = 0 s

fieldAverage fieldAverage write:
    Calculating averages

Mean and max Courant Numbers = 0.09993586917432677 0.09997736935227614
deltaT = 1.438848920863309e-06
Time = 0.00016259

diagonal:  Solving for rho, Initial residual = 0, Final residual = 0, No Iterations 0
diagonal:  Solving for rhoUx, Initial residual = 0, Final residual = 0, No Iterations 0
diagonal:  Solving for rhoE, Initial residual = 0, Final residual = 0, No Iterations 0
ExecutionTime = 0.19 s  ClockTime = 0 s

fieldAverage fieldAverage write:
    Calculating averages

Mean and max Courant Numbers = 0.09993587014720548 0.09997736570894646
deltaT = 1.438848920863309e-06
Time = 0.000164029

diagonal:  Solving for rho, Initial residual = 0, Final residual = 0, No Iterations 0
diagonal:  Solving for rhoUx, Initial residual = 0, Final residual = 0, No Iterations 0
diagonal:  Solving for rhoE, Initial residual = 0, Final residual = 0, No Iterations 0
ExecutionTime = 0.2 s  ClockTime = 0 s

fieldAverage fieldAverage write:
    Calculating averages

Mean and max Courant Numbers = 0.0999358709299407 0.09997736058087571
deltaT = 1.438848920863309e-06
Time = 0.000165468

diagonal:  Solving for rho, Initial residual = 0, Final residual = 0, No Iterations 0
diagonal:  Solving for rhoUx, Initial residual = 0, Final residual = 0, No Iterations 0
diagonal:  Solving for rhoE, Initial residual = 0, Final residual = 0, No Iterations 0
ExecutionTime = 0.2 s  ClockTime = 0 s

fieldAverage fieldAverage write:
    Calculating averages

Mean and max Courant Numbers = 0.09993587152687285 0.09997734804519536
deltaT = 1.438848920863309e-06
Time = 0.000166906

diagonal:  Solving for rho, Initial residual = 0, Final residual = 0, No Iterations 0
diagonal:  Solving for rhoUx, Initial residual = 0, Final residual = 0, No Iterations 0
diagonal:  Solving for rhoE, Initial residual = 0, Final residual = 0, No Iterations 0
ExecutionTime = 0.2 s  ClockTime = 0 s

fieldAverage fieldAverage write:
    Calculating averages

Mean and max Courant Numbers = 0.09993587186485517 0.09997732380754196
deltaT = 1.438848920863309e-06
Time = 0.000168345

diagonal:  Solving for rho, Initial residual = 0, Final residual = 0, No Iterations 0
diagonal:  Solving for rhoUx, Initial residual = 0, Final residual = 0, No Iterations 0
diagonal:  Solving for rhoE, Initial residual = 0, Final residual = 0, No Iterations 0
ExecutionTime = 0.2 s  ClockTime = 0 s

fieldAverage fieldAverage write:
    Calculating averages

Mean and max Courant Numbers = 0.0999358727198153 0.09997731186538955
deltaT = 1.438848920863309e-06
Time = 0.000169784

diagonal:  Solving for rho, Initial residual = 0, Final residual = 0, No Iterations 0
diagonal:  Solving for rhoUx, Initial residual = 0, Final residual = 0, No Iterations 0
diagonal:  Solving for rhoE, Initial residual = 0, Final residual = 0, No Iterations 0
ExecutionTime = 0.2 s  ClockTime = 0 s

fieldAverage fieldAverage write:
    Calculating averages

Mean and max Courant Numbers = 0.09993587351826763 0.09997731359720835
deltaT = 1.438848920863309e-06
Time = 0.000171223

diagonal:  Solving for rho, Initial residual = 0, Final residual = 0, No Iterations 0
diagonal:  Solving for rhoUx, Initial residual = 0, Final residual = 0, No Iterations 0
diagonal:  Solving for rhoE, Initial residual = 0, Final residual = 0, No Iterations 0
ExecutionTime = 0.2 s  ClockTime = 0 s

fieldAverage fieldAverage write:
    Calculating averages

Mean and max Courant Numbers = 0.09993587412074992 0.09997733003753626
deltaT = 1.438848920863309e-06
Time = 0.000172662

diagonal:  Solving for rho, Initial residual = 0, Final residual = 0, No Iterations 0
diagonal:  Solving for rhoUx, Initial residual = 0, Final residual = 0, No Iterations 0
diagonal:  Solving for rhoE, Initial residual = 0, Final residual = 0, No Iterations 0
ExecutionTime = 0.2 s  ClockTime = 0 s

fieldAverage fieldAverage write:
    Calculating averages

Mean and max Courant Numbers = 0.09993587458307318 0.09997734433561623
deltaT = 1.438848920863309e-06
Time = 0.000174101

diagonal:  Solving for rho, Initial residual = 0, Final residual = 0, No Iterations 0
diagonal:  Solving for rhoUx, Initial residual = 0, Final residual = 0, No Iterations 0
diagonal:  Solving for rhoE, Initial residual = 0, Final residual = 0, No Iterations 0
ExecutionTime = 0.2 s  ClockTime = 0 s

fieldAverage fieldAverage write:
    Calculating averages

Mean and max Courant Numbers = 0.09993587672580907 0.09997735422053561
deltaT = 1.438848920863309e-06
Time = 0.00017554

diagonal:  Solving for rho, Initial residual = 0, Final residual = 0, No Iterations 0
diagonal:  Solving for rhoUx, Initial residual = 0, Final residual = 0, No Iterations 0
diagonal:  Solving for rhoE, Initial residual = 0, Final residual = 0, No Iterations 0
ExecutionTime = 0.2 s  ClockTime = 0 s

fieldAverage fieldAverage write:
    Calculating averages

Mean and max Courant Numbers = 0.09993587861617181 0.09997735891095652
deltaT = 1.43884892086331e-06
Time = 0.000176978

diagonal:  Solving for rho, Initial residual = 0, Final residual = 0, No Iterations 0
diagonal:  Solving for rhoUx, Initial residual = 0, Final residual = 0, No Iterations 0
diagonal:  Solving for rhoE, Initial residual = 0, Final residual = 0, No Iterations 0
ExecutionTime = 0.2 s  ClockTime = 0 s

fieldAverage fieldAverage write:
    Calculating averages

Mean and max Courant Numbers = 0.09993588024125966 0.09997735777268439
deltaT = 1.438848920863309e-06
Time = 0.000178417

diagonal:  Solving for rho, Initial residual = 0, Final residual = 0, No Iterations 0
diagonal:  Solving for rhoUx, Initial residual = 0, Final residual = 0, No Iterations 0
diagonal:  Solving for rhoE, Initial residual = 0, Final residual = 0, No Iterations 0
ExecutionTime = 0.21 s  ClockTime = 0 s

fieldAverage fieldAverage write:
    Calculating averages

Mean and max Courant Numbers = 0.09993588163950223 0.09997735340270612
deltaT = 1.438848920863309e-06
Time = 0.000179856

diagonal:  Solving for rho, Initial residual = 0, Final residual = 0, No Iterations 0
diagonal:  Solving for rhoUx, Initial residual = 0, Final residual = 0, No Iterations 0
diagonal:  Solving for rhoE, Initial residual = 0, Final residual = 0, No Iterations 0
ExecutionTime = 0.21 s  ClockTime = 0 s

fieldAverage fieldAverage write:
    Calculating averages

Mean and max Courant Numbers = 0.09993588285564702 0.09997734446377249
deltaT = 1.438848920863309e-06
Time = 0.000181295

diagonal:  Solving for rho, Initial residual = 0, Final residual = 0, No Iterations 0
diagonal:  Solving for rhoUx, Initial residual = 0, Final residual = 0, No Iterations 0
diagonal:  Solving for rhoE, Initial residual = 0, Final residual = 0, No Iterations 0
ExecutionTime = 0.21 s  ClockTime = 0 s

fieldAverage fieldAverage write:
    Calculating averages

Mean and max Courant Numbers = 0.09993588374517143 0.09997732771726285
deltaT = 1.438848920863309e-06
Time = 0.000182734

diagonal:  Solving for rho, Initial residual = 0, Final residual = 0, No Iterations 0
diagonal:  Solving for rhoUx, Initial residual = 0, Final residual = 0, No Iterations 0
diagonal:  Solving for rhoE, Initial residual = 0, Final residual = 0, No Iterations 0
ExecutionTime = 0.21 s  ClockTime = 0 s

fieldAverage fieldAverage write:
    Calculating averages

Mean and max Courant Numbers = 0.0999358843643831 0.09997730458710752
deltaT = 1.438848920863309e-06
Time = 0.000184173

diagonal:  Solving for rho, Initial residual = 0, Final residual = 0, No Iterations 0
diagonal:  Solving for rhoUx, Initial residual = 0, Final residual = 0, No Iterations 0
diagonal:  Solving for rhoE, Initial residual = 0, Final residual = 0, No Iterations 0
ExecutionTime = 0.21 s  ClockTime = 0 s

fieldAverage fieldAverage write:
    Calculating averages

Mean and max Courant Numbers = 0.09993588575318099 0.09997730327126995
deltaT = 1.438848920863309e-06
Time = 0.000185612

diagonal:  Solving for rho, Initial residual = 0, Final residual = 0, No Iterations 0
diagonal:  Solving for rhoUx, Initial residual = 0, Final residual = 0, No Iterations 0
diagonal:  Solving for rhoE, Initial residual = 0, Final residual = 0, No Iterations 0
ExecutionTime = 0.21 s  ClockTime = 0 s

fieldAverage fieldAverage write:
    Calculating averages

Mean and max Courant Numbers = 0.09993588774977319 0.09997731774059879
deltaT = 1.43884892086331e-06
Time = 0.00018705

diagonal:  Solving for rho, Initial residual = 0, Final residual = 0, No Iterations 0
diagonal:  Solving for rhoUx, Initial residual = 0, Final residual = 0, No Iterations 0
diagonal:  Solving for rhoE, Initial residual = 0, Final residual = 0, No Iterations 0
ExecutionTime = 0.21 s  ClockTime = 0 s

fieldAverage fieldAverage write:
    Calculating averages

Mean and max Courant Numbers = 0.09993588958132138 0.09997733170566896
deltaT = 1.43884892086331e-06
Time = 0.000188489

diagonal:  Solving for rho, Initial residual = 0, Final residual = 0, No Iterations 0
diagonal:  Solving for rhoUx, Initial residual = 0, Final residual = 0, No Iterations 0
diagonal:  Solving for rhoE, Initial residual = 0, Final residual = 0, No Iterations 0
ExecutionTime = 0.21 s  ClockTime = 0 s

fieldAverage fieldAverage write:
    Calculating averages

Mean and max Courant Numbers = 0.09993589158703683 0.09997734182120388
deltaT = 1.438848920863309e-06
Time = 0.000189928

diagonal:  Solving for rho, Initial residual = 0, Final residual = 0, No Iterations 0
diagonal:  Solving for rhoUx, Initial residual = 0, Final residual = 0, No Iterations 0
diagonal:  Solving for rhoE, Initial residual = 0, Final residual = 0, No Iterations 0
ExecutionTime = 0.21 s  ClockTime = 0 s

fieldAverage fieldAverage write:
    Calculating averages

Mean and max Courant Numbers = 0.09993589485137182 0.09997734741655555
deltaT = 1.43884892086331e-06
Time = 0.000191367

diagonal:  Solving for rho, Initial residual = 0, Final residual = 0, No Iterations 0
diagonal:  Solving for rhoUx, Initial residual = 0, Final residual = 0, No Iterations 0
diagonal:  Solving for rhoE, Initial residual = 0, Final residual = 0, No Iterations 0
ExecutionTime = 0.22 s  ClockTime = 0 s

fieldAverage fieldAverage write:
    Calculating averages

Mean and max Courant Numbers = 0.09993589787672734 0.09997734791191941
deltaT = 1.43884892086331e-06
Time = 0.000192806

diagonal:  Solving for rho, Initial residual = 0, Final residual = 0, No Iterations 0
diagonal:  Solving for rhoUx, Initial residual = 0, Final residual = 0, No Iterations 0
diagonal:  Solving for rhoE, Initial residual = 0, Final residual = 0, No Iterations 0
ExecutionTime = 0.22 s  ClockTime = 0 s

fieldAverage fieldAverage write:
    Calculating averages

Mean and max Courant Numbers = 0.09993590061643039 0.09997734452015444
deltaT = 1.438848920863309e-06
Time = 0.000194245

diagonal:  Solving for rho, Initial residual = 0, Final residual = 0, No Iterations 0
diagonal:  Solving for rhoUx, Initial residual = 0, Final residual = 0, No Iterations 0
diagonal:  Solving for rhoE, Initial residual = 0, Final residual = 0, No Iterations 0
ExecutionTime = 0.22 s  ClockTime = 0 s

fieldAverage fieldAverage write:
    Calculating averages

Mean and max Courant Numbers = 0.09993590316073282 0.09997733779620158
deltaT = 1.43884892086331e-06
Time = 0.000195683

diagonal:  Solving for rho, Initial residual = 0, Final residual = 0, No Iterations 0
diagonal:  Solving for rhoUx, Initial residual = 0, Final residual = 0, No Iterations 0
diagonal:  Solving for rhoE, Initial residual = 0, Final residual = 0, No Iterations 0
ExecutionTime = 0.22 s  ClockTime = 0 s

fieldAverage fieldAverage write:
    Calculating averages

Mean and max Courant Numbers = 0.09993590545881455 0.09997732574197742
deltaT = 1.43884892086331e-06
Time = 0.000197122

diagonal:  Solving for rho, Initial residual = 0, Final residual = 0, No Iterations 0
diagonal:  Solving for rhoUx, Initial residual = 0, Final residual = 0, No Iterations 0
diagonal:  Solving for rhoE, Initial residual = 0, Final residual = 0, No Iterations 0
ExecutionTime = 0.22 s  ClockTime = 0 s

fieldAverage fieldAverage write:
    Calculating averages

Mean and max Courant Numbers = 0.09993590923459252 0.09997730739461377
deltaT = 1.43884892086331e-06
Time = 0.000198561

diagonal:  Solving for rho, Initial residual = 0, Final residual = 0, No Iterations 0
diagonal:  Solving for rhoUx, Initial residual = 0, Final residual = 0, No Iterations 0
diagonal:  Solving for rhoE, Initial residual = 0, Final residual = 0, No Iterations 0
ExecutionTime = 0.22 s  ClockTime = 0 s

fieldAverage fieldAverage write:
    Calculating averages

Mean and max Courant Numbers = 0.09993591289534554 0.09997729757254385
deltaT = 1.43884892086331e-06
Time = 0.0002

diagonal:  Solving for rho, Initial residual = 0, Final residual = 0, No Iterations 0
diagonal:  Solving for rhoUx, Initial residual = 0, Final residual = 0, No Iterations 0
diagonal:  Solving for rhoE, Initial residual = 0, Final residual = 0, No Iterations 0
ExecutionTime = 0.22 s  ClockTime = 0 s

fieldAverage fieldAverage write:
    Calculating averages

Mean and max Courant Numbers = 0.09993591626385771 0.09997731001052938
deltaT = 1.43884892086331e-06
Time = 0.000201439

diagonal:  Solving for rho, Initial residual = 0, Final residual = 0, No Iterations 0
diagonal:  Solving for rhoUx, Initial residual = 0, Final residual = 0, No Iterations 0
diagonal:  Solving for rhoE, Initial residual = 0, Final residual = 0, No Iterations 0
ExecutionTime = 0.22 s  ClockTime = 0 s

fieldAverage fieldAverage write:
    Calculating averages

Mean and max Courant Numbers = 0.09993591939641017 0.09997732346298747
deltaT = 1.43884892086331e-06
Time = 0.000202878

diagonal:  Solving for rho, Initial residual = 0, Final residual = 0, No Iterations 0
diagonal:  Solving for rhoUx, Initial residual = 0, Final residual = 0, No Iterations 0
diagonal:  Solving for rhoE, Initial residual = 0, Final residual = 0, No Iterations 0
ExecutionTime = 0.22 s  ClockTime = 0 s

fieldAverage fieldAverage write:
    Calculating averages

Mean and max Courant Numbers = 0.09993592241161889 0.0999773336376004
deltaT = 1.43884892086331e-06
Time = 0.000204317

diagonal:  Solving for rho, Initial residual = 0, Final residual = 0, No Iterations 0
diagonal:  Solving for rhoUx, Initial residual = 0, Final residual = 0, No Iterations 0
diagonal:  Solving for rhoE, Initial residual = 0, Final residual = 0, No Iterations 0
ExecutionTime = 0.23 s  ClockTime = 0 s

fieldAverage fieldAverage write:
    Calculating averages

Mean and max Courant Numbers = 0.09993592696520723 0.09997733959326398
deltaT = 1.43884892086331e-06
Time = 0.000205755

diagonal:  Solving for rho, Initial residual = 0, Final residual = 0, No Iterations 0
diagonal:  Solving for rhoUx, Initial residual = 0, Final residual = 0, No Iterations 0
diagonal:  Solving for rhoE, Initial residual = 0, Final residual = 0, No Iterations 0
ExecutionTime = 0.23 s  ClockTime = 0 s

fieldAverage fieldAverage write:
    Calculating averages

Mean and max Courant Numbers = 0.09993593123542982 0.09997734122302895
deltaT = 1.43884892086331e-06
Time = 0.000207194

diagonal:  Solving for rho, Initial residual = 0, Final residual = 0, No Iterations 0
diagonal:  Solving for rhoUx, Initial residual = 0, Final residual = 0, No Iterations 0
diagonal:  Solving for rhoE, Initial residual = 0, Final residual = 0, No Iterations 0
ExecutionTime = 0.23 s  ClockTime = 0 s

fieldAverage fieldAverage write:
    Calculating averages

Mean and max Courant Numbers = 0.09993593524451436 0.09997733973925933
deltaT = 1.43884892086331e-06
Time = 0.000208633

diagonal:  Solving for rho, Initial residual = 0, Final residual = 0, No Iterations 0
diagonal:  Solving for rhoUx, Initial residual = 0, Final residual = 0, No Iterations 0
diagonal:  Solving for rhoE, Initial residual = 0, Final residual = 0, No Iterations 0
ExecutionTime = 0.23 s  ClockTime = 0 s

fieldAverage fieldAverage write:
    Calculating averages

Mean and max Courant Numbers = 0.09993593896790916 0.09997733451692681
deltaT = 1.43884892086331e-06
Time = 0.000210072

diagonal:  Solving for rho, Initial residual = 0, Final residual = 0, No Iterations 0
diagonal:  Solving for rhoUx, Initial residual = 0, Final residual = 0, No Iterations 0
diagonal:  Solving for rhoE, Initial residual = 0, Final residual = 0, No Iterations 0
ExecutionTime = 0.23 s  ClockTime = 0 s

fieldAverage fieldAverage write:
    Calculating averages

Mean and max Courant Numbers = 0.09993594256422482 0.09997732531110148
deltaT = 1.43884892086331e-06
Time = 0.000211511

diagonal:  Solving for rho, Initial residual = 0, Final residual = 0, No Iterations 0
diagonal:  Solving for rhoUx, Initial residual = 0, Final residual = 0, No Iterations 0
diagonal:  Solving for rhoE, Initial residual = 0, Final residual = 0, No Iterations 0
ExecutionTime = 0.23 s  ClockTime = 0 s

fieldAverage fieldAverage write:
    Calculating averages

Mean and max Courant Numbers = 0.09993594766970683 0.09997731207565023
deltaT = 1.43884892086331e-06
Time = 0.00021295

diagonal:  Solving for rho, Initial residual = 0, Final residual = 0, No Iterations 0
diagonal:  Solving for rhoUx, Initial residual = 0, Final residual = 0, No Iterations 0
diagonal:  Solving for rhoE, Initial residual = 0, Final residual = 0, No Iterations 0
ExecutionTime = 0.23 s  ClockTime = 0 s

fieldAverage fieldAverage write:
    Calculating averages

Mean and max Courant Numbers = 0.09993595244163075 0.09997729839896856
deltaT = 1.43884892086331e-06
Time = 0.000214388

diagonal:  Solving for rho, Initial residual = 0, Final residual = 0, No Iterations 0
diagonal:  Solving for rhoUx, Initial residual = 0, Final residual = 0, No Iterations 0
diagonal:  Solving for rhoE, Initial residual = 0, Final residual = 0, No Iterations 0
ExecutionTime = 0.23 s  ClockTime = 0 s

fieldAverage fieldAverage write:
    Calculating averages

Mean and max Courant Numbers = 0.09993595690768628 0.0999773047662285
deltaT = 1.43884892086331e-06
Time = 0.000215827

diagonal:  Solving for rho, Initial residual = 0, Final residual = 0, No Iterations 0
diagonal:  Solving for rhoUx, Initial residual = 0, Final residual = 0, No Iterations 0
diagonal:  Solving for rhoE, Initial residual = 0, Final residual = 0, No Iterations 0
ExecutionTime = 0.23 s  ClockTime = 0 s

fieldAverage fieldAverage write:
    Calculating averages

Mean and max Courant Numbers = 0.09993596107897346 0.09997731801712985
deltaT = 1.43884892086331e-06
Time = 0.000217266

diagonal:  Solving for rho, Initial residual = 0, Final residual = 0, No Iterations 0
diagonal:  Solving for rhoUx, Initial residual = 0, Final residual = 0, No Iterations 0
diagonal:  Solving for rhoE, Initial residual = 0, Final residual = 0, No Iterations 0
ExecutionTime = 0.23 s  ClockTime = 0 s

fieldAverage fieldAverage write:
    Calculating averages

Mean and max Courant Numbers = 0.09993596518360209 0.09997732792987192
deltaT = 1.43884892086331e-06
Time = 0.000218705

diagonal:  Solving for rho, Initial residual = 0, Final residual = 0, No Iterations 0
diagonal:  Solving for rhoUx, Initial residual = 0, Final residual = 0, No Iterations 0
diagonal:  Solving for rhoE, Initial residual = 0, Final residual = 0, No Iterations 0
ExecutionTime = 0.23 s  ClockTime = 0 s

fieldAverage fieldAverage write:
    Calculating averages

Mean and max Courant Numbers = 0.09993597074933001 0.09997733406782505
deltaT = 1.43884892086331e-06
Time = 0.000220144

diagonal:  Solving for rho, Initial residual = 0, Final residual = 0, No Iterations 0
diagonal:  Solving for rhoUx, Initial residual = 0, Final residual = 0, No Iterations 0
diagonal:  Solving for rhoE, Initial residual = 0, Final residual = 0, No Iterations 0
ExecutionTime = 0.25 s  ClockTime = 0 s

fieldAverage fieldAverage write:
    Calculating averages

Mean and max Courant Numbers = 0.09993597597846651 0.09997733639264529
deltaT = 1.43884892086331e-06
Time = 0.000221583

diagonal:  Solving for rho, Initial residual = 0, Final residual = 0, No Iterations 0
diagonal:  Solving for rhoUx, Initial residual = 0, Final residual = 0, No Iterations 0
diagonal:  Solving for rhoE, Initial residual = 0, Final residual = 0, No Iterations 0
ExecutionTime = 0.25 s  ClockTime = 0 s

fieldAverage fieldAverage write:
    Calculating averages

Mean and max Courant Numbers = 0.09993598088619869 0.09997733562003785
deltaT = 1.43884892086331e-06
Time = 0.000223022

diagonal:  Solving for rho, Initial residual = 0, Final residual = 0, No Iterations 0
diagonal:  Solving for rhoUx, Initial residual = 0, Final residual = 0, No Iterations 0
diagonal:  Solving for rhoE, Initial residual = 0, Final residual = 0, No Iterations 0
ExecutionTime = 0.25 s  ClockTime = 0 s

fieldAverage fieldAverage write:
    Calculating averages

Mean and max Courant Numbers = 0.09993598550541812 0.09997733179232016
deltaT = 1.43884892086331e-06
Time = 0.00022446

diagonal:  Solving for rho, Initial residual = 0, Final residual = 0, No Iterations 0
diagonal:  Solving for rhoUx, Initial residual = 0, Final residual = 0, No Iterations 0
diagonal:  Solving for rhoE, Initial residual = 0, Final residual = 0, No Iterations 0
ExecutionTime = 0.25 s  ClockTime = 0 s

fieldAverage fieldAverage write:
    Calculating averages

Mean and max Courant Numbers = 0.09993599004113364 0.09997732443438766
deltaT = 1.43884892086331e-06
Time = 0.000225899

diagonal:  Solving for rho, Initial residual = 0, Final residual = 0, No Iterations 0
diagonal:  Solving for rhoUx, Initial residual = 0, Final residual = 0, No Iterations 0
diagonal:  Solving for rhoE, Initial residual = 0, Final residual = 0, No Iterations 0
ExecutionTime = 0.25 s  ClockTime = 0 s

fieldAverage fieldAverage write:
    Calculating averages

Mean and max Courant Numbers = 0.09993599600416772 0.09997731421891369
deltaT = 1.43884892086331e-06
Time = 0.000227338

diagonal:  Solving for rho, Initial residual = 0, Final residual = 0, No Iterations 0
diagonal:  Solving for rhoUx, Initial residual = 0, Final residual = 0, No Iterations 0
diagonal:  Solving for rhoE, Initial residual = 0, Final residual = 0, No Iterations 0
ExecutionTime = 0.25 s  ClockTime = 0 s

fieldAverage fieldAverage write:
    Calculating averages

Mean and max Courant Numbers = 0.09993600159144289 0.09997730120349131
deltaT = 1.43884892086331e-06
Time = 0.000228777

diagonal:  Solving for rho, Initial residual = 0, Final residual = 0, No Iterations 0
diagonal:  Solving for rhoUx, Initial residual = 0, Final residual = 0, No Iterations 0
diagonal:  Solving for rhoE, Initial residual = 0, Final residual = 0, No Iterations 0
ExecutionTime = 0.25 s  ClockTime = 0 s

fieldAverage fieldAverage write:
    Calculating averages

Mean and max Courant Numbers = 0.09993600681719389 0.09997729977918679
deltaT = 1.43884892086331e-06
Time = 0.000230216

diagonal:  Solving for rho, Initial residual = 0, Final residual = 0, No Iterations 0
diagonal:  Solving for rhoUx, Initial residual = 0, Final residual = 0, No Iterations 0
diagonal:  Solving for rhoE, Initial residual = 0, Final residual = 0, No Iterations 0
ExecutionTime = 0.25 s  ClockTime = 0 s

fieldAverage fieldAverage write:
    Calculating averages

Mean and max Courant Numbers = 0.09993601171733844 0.09997731264802187
deltaT = 1.43884892086331e-06
Time = 0.000231655

diagonal:  Solving for rho, Initial residual = 0, Final residual = 0, No Iterations 0
diagonal:  Solving for rhoUx, Initial residual = 0, Final residual = 0, No Iterations 0
diagonal:  Solving for rhoE, Initial residual = 0, Final residual = 0, No Iterations 0
ExecutionTime = 0.25 s  ClockTime = 0 s

fieldAverage fieldAverage write:
    Calculating averages

Mean and max Courant Numbers = 0.09993601655713802 0.09997732219638179
deltaT = 1.43884892086331e-06
Time = 0.000233094

diagonal:  Solving for rho, Initial residual = 0, Final residual = 0, No Iterations 0
[...]
diagonal:  Solving for rhoE, Initial residual = 0, Final residual = 0, No Iterations 0
ExecutionTime = 3.47 s  ClockTime = 3 s

fieldAverage fieldAverage write:
    Calculating averages

Mean and max Courant Numbers = 0.0999527462191174 0.09998068416078659
deltaT = 1.438848920863287e-06
Time = 0.00407194

diagonal:  Solving for rho, Initial residual = 0, Final residual = 0, No Iterations 0
diagonal:  Solving for rhoUx, Initial residual = 0, Final residual = 0, No Iterations 0
diagonal:  Solving for rhoE, Initial residual = 0, Final residual = 0, No Iterations 0
ExecutionTime = 3.47 s  ClockTime = 3 s

fieldAverage fieldAverage write:
    Calculating averages

Mean and max Courant Numbers = 0.09995275908166718 0.09998055208473383
deltaT = 1.438848920863287e-06
Time = 0.00407338

diagonal:  Solving for rho, Initial residual = 0, Final residual = 0, No Iterations 0
diagonal:  Solving for rhoUx, Initial residual = 0, Final residual = 0, No Iterations 0
diagonal:  Solving for rhoE, Initial residual = 0, Final residual = 0, No Iterations 0
ExecutionTime = 3.47 s  ClockTime = 3 s

fieldAverage fieldAverage write:
    Calculating averages

Mean and max Courant Numbers = 0.09995276111363942 0.09998042548842132
deltaT = 1.438848920863286e-06
Time = 0.00407482

diagonal:  Solving for rho, Initial residual = 0, Final residual = 0, No Iterations 0
diagonal:  Solving for rhoUx, Initial residual = 0, Final residual = 0, No Iterations 0
diagonal:  Solving for rhoE, Initial residual = 0, Final residual = 0, No Iterations 0
ExecutionTime = 3.47 s  ClockTime = 3 s

fieldAverage fieldAverage write:
    Calculating averages

Mean and max Courant Numbers = 0.09995276671758015 0.09998027610651004
deltaT = 1.438848920863286e-06
Time = 0.00407626

diagonal:  Solving for rho, Initial residual = 0, Final residual = 0, No Iterations 0
diagonal:  Solving for rhoUx, Initial residual = 0, Final residual = 0, No Iterations 0
diagonal:  Solving for rhoE, Initial residual = 0, Final residual = 0, No Iterations 0
ExecutionTime = 3.47 s  ClockTime = 3 s

fieldAverage fieldAverage write:
    Calculating averages

Mean and max Courant Numbers = 0.09995278009060379 0.09998003890558108
deltaT = 1.438848920863285e-06
Time = 0.0040777

diagonal:  Solving for rho, Initial residual = 0, Final residual = 0, No Iterations 0
diagonal:  Solving for rhoUx, Initial residual = 0, Final residual = 0, No Iterations 0
diagonal:  Solving for rhoE, Initial residual = 0, Final residual = 0, No Iterations 0
ExecutionTime = 3.47 s  ClockTime = 3 s

fieldAverage fieldAverage write:
    Calculating averages

Mean and max Courant Numbers = 0.0999527975293474 0.09997991798316445
deltaT = 1.438848920863285e-06
Time = 0.00407914

diagonal:  Solving for rho, Initial residual = 0, Final residual = 0, No Iterations 0
diagonal:  Solving for rhoUx, Initial residual = 0, Final residual = 0, No Iterations 0
diagonal:  Solving for rhoE, Initial residual = 0, Final residual = 0, No Iterations 0
ExecutionTime = 3.47 s  ClockTime = 3 s

fieldAverage fieldAverage write:
    Calculating averages

Mean and max Courant Numbers = 0.09995280748358121 0.09997990624586352
deltaT = 1.438848920863284e-06
Time = 0.00408058

diagonal:  Solving for rho, Initial residual = 0, Final residual = 0, No Iterations 0
diagonal:  Solving for rhoUx, Initial residual = 0, Final residual = 0, No Iterations 0
diagonal:  Solving for rhoE, Initial residual = 0, Final residual = 0, No Iterations 0
ExecutionTime = 3.47 s  ClockTime = 3 s

fieldAverage fieldAverage write:
    Calculating averages

Mean and max Courant Numbers = 0.09995280680862899 0.09997988983665457
deltaT = 1.438848920863284e-06
Time = 0.00408201

diagonal:  Solving for rho, Initial residual = 0, Final residual = 0, No Iterations 0
diagonal:  Solving for rhoUx, Initial residual = 0, Final residual = 0, No Iterations 0
diagonal:  Solving for rhoE, Initial residual = 0, Final residual = 0, No Iterations 0
ExecutionTime = 3.47 s  ClockTime = 3 s

fieldAverage fieldAverage write:
    Calculating averages

Mean and max Courant Numbers = 0.09995280652592411 0.0999798776537851
deltaT = 1.438848920863283e-06
Time = 0.00408345

diagonal:  Solving for rho, Initial residual = 0, Final residual = 0, No Iterations 0
diagonal:  Solving for rhoUx, Initial residual = 0, Final residual = 0, No Iterations 0
diagonal:  Solving for rhoE, Initial residual = 0, Final residual = 0, No Iterations 0
ExecutionTime = 3.48 s  ClockTime = 3 s

fieldAverage fieldAverage write:
    Calculating averages

Mean and max Courant Numbers = 0.09995281730886453 0.09997995378942073
deltaT = 1.438848920863283e-06
Time = 0.00408489

diagonal:  Solving for rho, Initial residual = 0, Final residual = 0, No Iterations 0
diagonal:  Solving for rhoUx, Initial residual = 0, Final residual = 0, No Iterations 0
diagonal:  Solving for rhoE, Initial residual = 0, Final residual = 0, No Iterations 0
ExecutionTime = 3.48 s  ClockTime = 3 s

fieldAverage fieldAverage write:
    Calculating averages

Mean and max Courant Numbers = 0.0999528375343478 0.09998013751654658
deltaT = 1.438848920863282e-06
Time = 0.00408633

diagonal:  Solving for rho, Initial residual = 0, Final residual = 0, No Iterations 0
diagonal:  Solving for rhoUx, Initial residual = 0, Final residual = 0, No Iterations 0
diagonal:  Solving for rhoE, Initial residual = 0, Final residual = 0, No Iterations 0
ExecutionTime = 3.48 s  ClockTime = 3 s

fieldAverage fieldAverage write:
    Calculating averages

Mean and max Courant Numbers = 0.09995284885074895 0.09998038086653227
deltaT = 1.438848920863282e-06
Time = 0.00408777

diagonal:  Solving for rho, Initial residual = 0, Final residual = 0, No Iterations 0
diagonal:  Solving for rhoUx, Initial residual = 0, Final residual = 0, No Iterations 0
diagonal:  Solving for rhoE, Initial residual = 0, Final residual = 0, No Iterations 0
ExecutionTime = 3.48 s  ClockTime = 3 s

fieldAverage fieldAverage write:
    Calculating averages

Mean and max Courant Numbers = 0.099952851946639 0.09998059450743306
deltaT = 1.438848920863281e-06
Time = 0.00408921

diagonal:  Solving for rho, Initial residual = 0, Final residual = 0, No Iterations 0
diagonal:  Solving for rhoUx, Initial residual = 0, Final residual = 0, No Iterations 0
diagonal:  Solving for rhoE, Initial residual = 0, Final residual = 0, No Iterations 0
ExecutionTime = 3.48 s  ClockTime = 3 s

fieldAverage fieldAverage write:
    Calculating averages

Mean and max Courant Numbers = 0.09995285863571074 0.09998074829770744
deltaT = 1.438848920863281e-06
Time = 0.00409065

diagonal:  Solving for rho, Initial residual = 0, Final residual = 0, No Iterations 0
diagonal:  Solving for rhoUx, Initial residual = 0, Final residual = 0, No Iterations 0
diagonal:  Solving for rhoE, Initial residual = 0, Final residual = 0, No Iterations 0
ExecutionTime = 3.48 s  ClockTime = 3 s

fieldAverage fieldAverage write:
    Calculating averages

Mean and max Courant Numbers = 0.09995287439391211 0.09998085217988678
deltaT = 1.43884892086328e-06
Time = 0.00409209

diagonal:  Solving for rho, Initial residual = 0, Final residual = 0, No Iterations 0
diagonal:  Solving for rhoUx, Initial residual = 0, Final residual = 0, No Iterations 0
diagonal:  Solving for rhoE, Initial residual = 0, Final residual = 0, No Iterations 0
ExecutionTime = 3.48 s  ClockTime = 3 s

fieldAverage fieldAverage write:
    Calculating averages

Mean and max Courant Numbers = 0.09995289801969225 0.09998089339221156
deltaT = 1.43884892086328e-06
Time = 0.00409353

diagonal:  Solving for rho, Initial residual = 0, Final residual = 0, No Iterations 0
diagonal:  Solving for rhoUx, Initial residual = 0, Final residual = 0, No Iterations 0
diagonal:  Solving for rhoE, Initial residual = 0, Final residual = 0, No Iterations 0
ExecutionTime = 3.48 s  ClockTime = 3 s

fieldAverage fieldAverage write:
    Calculating averages

Mean and max Courant Numbers = 0.09995291221760236 0.0999808837915802
deltaT = 1.438848920863279e-06
Time = 0.00409496

diagonal:  Solving for rho, Initial residual = 0, Final residual = 0, No Iterations 0
diagonal:  Solving for rhoUx, Initial residual = 0, Final residual = 0, No Iterations 0
diagonal:  Solving for rhoE, Initial residual = 0, Final residual = 0, No Iterations 0
ExecutionTime = 3.48 s  ClockTime = 3 s

fieldAverage fieldAverage write:
    Calculating averages

Mean and max Courant Numbers = 0.09995291518174398 0.09998082399397328
deltaT = 1.438848920863279e-06
Time = 0.0040964

diagonal:  Solving for rho, Initial residual = 0, Final residual = 0, No Iterations 0
diagonal:  Solving for rhoUx, Initial residual = 0, Final residual = 0, No Iterations 0
diagonal:  Solving for rhoE, Initial residual = 0, Final residual = 0, No Iterations 0
ExecutionTime = 3.48 s  ClockTime = 3 s

fieldAverage fieldAverage write:
    Calculating averages

Mean and max Courant Numbers = 0.0999529204010539 0.09998070098974883
deltaT = 1.438848920863278e-06
Time = 0.00409784

diagonal:  Solving for rho, Initial residual = 0, Final residual = 0, No Iterations 0
diagonal:  Solving for rhoUx, Initial residual = 0, Final residual = 0, No Iterations 0
diagonal:  Solving for rhoE, Initial residual = 0, Final residual = 0, No Iterations 0
ExecutionTime = 3.49 s  ClockTime = 3 s

fieldAverage fieldAverage write:
    Calculating averages

Mean and max Courant Numbers = 0.09995293550375321 0.09998051585224836
deltaT = 1.438848920863278e-06
Time = 0.00409928

diagonal:  Solving for rho, Initial residual = 0, Final residual = 0, No Iterations 0
diagonal:  Solving for rhoUx, Initial residual = 0, Final residual = 0, No Iterations 0
diagonal:  Solving for rhoE, Initial residual = 0, Final residual = 0, No Iterations 0
ExecutionTime = 3.49 s  ClockTime = 3 s

fieldAverage fieldAverage write:
    Calculating averages

Mean and max Courant Numbers = 0.09995295842080118 0.09998062181009618
deltaT = 1.438848920863277e-06
Time = 0.00410072

diagonal:  Solving for rho, Initial residual = 0, Final residual = 0, No Iterations 0
diagonal:  Solving for rhoUx, Initial residual = 0, Final residual = 0, No Iterations 0
diagonal:  Solving for rhoE, Initial residual = 0, Final residual = 0, No Iterations 0
ExecutionTime = 3.49 s  ClockTime = 3 s

fieldAverage fieldAverage write:
    Calculating averages

Mean and max Courant Numbers = 0.09995296934514745 0.09998104484390315
deltaT = 1.438848920863277e-06
Time = 0.00410216

diagonal:  Solving for rho, Initial residual = 0, Final residual = 0, No Iterations 0
diagonal:  Solving for rhoUx, Initial residual = 0, Final residual = 0, No Iterations 0
diagonal:  Solving for rhoE, Initial residual = 0, Final residual = 0, No Iterations 0
ExecutionTime = 3.5 s  ClockTime = 3 s

fieldAverage fieldAverage write:
    Calculating averages

Mean and max Courant Numbers = 0.09995296881457796 0.09998130657821061
deltaT = 1.438848920863276e-06
Time = 0.0041036

diagonal:  Solving for rho, Initial residual = 0, Final residual = 0, No Iterations 0
diagonal:  Solving for rhoUx, Initial residual = 0, Final residual = 0, No Iterations 0
diagonal:  Solving for rhoE, Initial residual = 0, Final residual = 0, No Iterations 0
ExecutionTime = 3.5 s  ClockTime = 3 s

fieldAverage fieldAverage write:
    Calculating averages

Mean and max Courant Numbers = 0.09995296945056484 0.09998140596304544
deltaT = 1.438848920863276e-06
Time = 0.00410504

diagonal:  Solving for rho, Initial residual = 0, Final residual = 0, No Iterations 0
diagonal:  Solving for rhoUx, Initial residual = 0, Final residual = 0, No Iterations 0
diagonal:  Solving for rhoE, Initial residual = 0, Final residual = 0, No Iterations 0
ExecutionTime = 3.5 s  ClockTime = 3 s

fieldAverage fieldAverage write:
    Calculating averages

Mean and max Courant Numbers = 0.0999529774160722 0.09998135728331611
deltaT = 1.438848920863275e-06
Time = 0.00410647

diagonal:  Solving for rho, Initial residual = 0, Final residual = 0, No Iterations 0
diagonal:  Solving for rhoUx, Initial residual = 0, Final residual = 0, No Iterations 0
diagonal:  Solving for rhoE, Initial residual = 0, Final residual = 0, No Iterations 0
ExecutionTime = 3.5 s  ClockTime = 3 s

fieldAverage fieldAverage write:
    Calculating averages

Mean and max Courant Numbers = 0.09995299354176637 0.09998112301765803
deltaT = 1.438848920863275e-06
Time = 0.00410791

diagonal:  Solving for rho, Initial residual = 0, Final residual = 0, No Iterations 0
diagonal:  Solving for rhoUx, Initial residual = 0, Final residual = 0, No Iterations 0
diagonal:  Solving for rhoE, Initial residual = 0, Final residual = 0, No Iterations 0
ExecutionTime = 3.5 s  ClockTime = 3 s

fieldAverage fieldAverage write:
    Calculating averages

Mean and max Courant Numbers = 0.09995300172438386 0.09998076836117958
deltaT = 1.438848920863274e-06
Time = 0.00410935

diagonal:  Solving for rho, Initial residual = 0, Final residual = 0, No Iterations 0
diagonal:  Solving for rhoUx, Initial residual = 0, Final residual = 0, No Iterations 0
diagonal:  Solving for rhoE, Initial residual = 0, Final residual = 0, No Iterations 0
ExecutionTime = 3.5 s  ClockTime = 3 s

fieldAverage fieldAverage write:
    Calculating averages

Mean and max Courant Numbers = 0.09995299976109656 0.09998027584847814
deltaT = 1.438848920863274e-06
Time = 0.00411079

diagonal:  Solving for rho, Initial residual = 0, Final residual = 0, No Iterations 0
diagonal:  Solving for rhoUx, Initial residual = 0, Final residual = 0, No Iterations 0
diagonal:  Solving for rhoE, Initial residual = 0, Final residual = 0, No Iterations 0
ExecutionTime = 3.5 s  ClockTime = 3 s

fieldAverage fieldAverage write:
    Calculating averages

Mean and max Courant Numbers = 0.09995300304750238 0.09998028835284074
deltaT = 1.438848920863273e-06
Time = 0.00411223

diagonal:  Solving for rho, Initial residual = 0, Final residual = 0, No Iterations 0
diagonal:  Solving for rhoUx, Initial residual = 0, Final residual = 0, No Iterations 0
diagonal:  Solving for rhoE, Initial residual = 0, Final residual = 0, No Iterations 0
ExecutionTime = 3.5 s  ClockTime = 3 s

fieldAverage fieldAverage write:
    Calculating averages

Mean and max Courant Numbers = 0.09995301643167244 0.09998044191972584
deltaT = 1.438848920863273e-06
Time = 0.00411367

diagonal:  Solving for rho, Initial residual = 0, Final residual = 0, No Iterations 0
diagonal:  Solving for rhoUx, Initial residual = 0, Final residual = 0, No Iterations 0
diagonal:  Solving for rhoE, Initial residual = 0, Final residual = 0, No Iterations 0
ExecutionTime = 3.51 s  ClockTime = 3 s

fieldAverage fieldAverage write:
    Calculating averages

Mean and max Courant Numbers = 0.09995303981487759 0.09998055644925831
deltaT = 1.438848920863272e-06
Time = 0.00411511

diagonal:  Solving for rho, Initial residual = 0, Final residual = 0, No Iterations 0
diagonal:  Solving for rhoUx, Initial residual = 0, Final residual = 0, No Iterations 0
diagonal:  Solving for rhoE, Initial residual = 0, Final residual = 0, No Iterations 0
ExecutionTime = 3.51 s  ClockTime = 3 s

fieldAverage fieldAverage write:
    Calculating averages

Mean and max Courant Numbers = 0.09995305355165036 0.09998062691306102
deltaT = 1.438848920863272e-06
Time = 0.00411655

diagonal:  Solving for rho, Initial residual = 0, Final residual = 0, No Iterations 0
diagonal:  Solving for rhoUx, Initial residual = 0, Final residual = 0, No Iterations 0
diagonal:  Solving for rhoE, Initial residual = 0, Final residual = 0, No Iterations 0
ExecutionTime = 3.51 s  ClockTime = 3 s

fieldAverage fieldAverage write:
    Calculating averages

Mean and max Courant Numbers = 0.09995305801245929 0.09998064231110067
deltaT = 1.438848920863271e-06
Time = 0.00411799

diagonal:  Solving for rho, Initial residual = 0, Final residual = 0, No Iterations 0
diagonal:  Solving for rhoUx, Initial residual = 0, Final residual = 0, No Iterations 0
diagonal:  Solving for rhoE, Initial residual = 0, Final residual = 0, No Iterations 0
ExecutionTime = 3.51 s  ClockTime = 3 s

fieldAverage fieldAverage write:
    Calculating averages

Mean and max Courant Numbers = 0.09995306425141105 0.09998066553361555
deltaT = 1.43884892086327e-06
Time = 0.00411942

diagonal:  Solving for rho, Initial residual = 0, Final residual = 0, No Iterations 0
diagonal:  Solving for rhoUx, Initial residual = 0, Final residual = 0, No Iterations 0
diagonal:  Solving for rhoE, Initial residual = 0, Final residual = 0, No Iterations 0
ExecutionTime = 3.51 s  ClockTime = 3 s

fieldAverage fieldAverage write:
    Calculating averages

Mean and max Courant Numbers = 0.09995307844530664 0.09998067466157598
deltaT = 1.43884892086327e-06
Time = 0.00412086

diagonal:  Solving for rho, Initial residual = 0, Final residual = 0, No Iterations 0
diagonal:  Solving for rhoUx, Initial residual = 0, Final residual = 0, No Iterations 0
diagonal:  Solving for rhoE, Initial residual = 0, Final residual = 0, No Iterations 0
ExecutionTime = 3.51 s  ClockTime = 3 s

fieldAverage fieldAverage write:
    Calculating averages

Mean and max Courant Numbers = 0.09995310232327059 0.09998065081639826
deltaT = 1.438848920863269e-06
Time = 0.0041223

diagonal:  Solving for rho, Initial residual = 0, Final residual = 0, No Iterations 0
diagonal:  Solving for rhoUx, Initial residual = 0, Final residual = 0, No Iterations 0
diagonal:  Solving for rhoE, Initial residual = 0, Final residual = 0, No Iterations 0
ExecutionTime = 3.51 s  ClockTime = 3 s

fieldAverage fieldAverage write:
    Calculating averages

Mean and max Courant Numbers = 0.09995311404739422 0.09998059474230307
deltaT = 1.438848920863269e-06
Time = 0.00412374

diagonal:  Solving for rho, Initial residual = 0, Final residual = 0, No Iterations 0
diagonal:  Solving for rhoUx, Initial residual = 0, Final residual = 0, No Iterations 0
diagonal:  Solving for rhoE, Initial residual = 0, Final residual = 0, No Iterations 0
ExecutionTime = 3.51 s  ClockTime = 3 s

fieldAverage fieldAverage write:
    Calculating averages

Mean and max Courant Numbers = 0.09995311335140364 0.09998049528887758
deltaT = 1.438848920863268e-06
Time = 0.00412518

diagonal:  Solving for rho, Initial residual = 0, Final residual = 0, No Iterations 0
diagonal:  Solving for rhoUx, Initial residual = 0, Final residual = 0, No Iterations 0
diagonal:  Solving for rhoE, Initial residual = 0, Final residual = 0, No Iterations 0
ExecutionTime = 3.52 s  ClockTime = 3 s

fieldAverage fieldAverage write:
    Calculating averages

Mean and max Courant Numbers = 0.09995311399682923 0.0999807864217717
deltaT = 1.438848920863268e-06
Time = 0.00412662

diagonal:  Solving for rho, Initial residual = 0, Final residual = 0, No Iterations 0
diagonal:  Solving for rhoUx, Initial residual = 0, Final residual = 0, No Iterations 0
diagonal:  Solving for rhoE, Initial residual = 0, Final residual = 0, No Iterations 0
ExecutionTime = 3.52 s  ClockTime = 3 s

fieldAverage fieldAverage write:
    Calculating averages

Mean and max Courant Numbers = 0.09995312064824549 0.09998106183639996
deltaT = 1.438848920863267e-06
Time = 0.00412806

diagonal:  Solving for rho, Initial residual = 0, Final residual = 0, No Iterations 0
diagonal:  Solving for rhoUx, Initial residual = 0, Final residual = 0, No Iterations 0
diagonal:  Solving for rhoE, Initial residual = 0, Final residual = 0, No Iterations 0
ExecutionTime = 3.52 s  ClockTime = 3 s

fieldAverage fieldAverage write:
    Calculating averages

Mean and max Courant Numbers = 0.09995313741340947 0.09998120280582001
deltaT = 1.438848920863267e-06
Time = 0.0041295

diagonal:  Solving for rho, Initial residual = 0, Final residual = 0, No Iterations 0
diagonal:  Solving for rhoUx, Initial residual = 0, Final residual = 0, No Iterations 0
diagonal:  Solving for rhoE, Initial residual = 0, Final residual = 0, No Iterations 0
ExecutionTime = 3.52 s  ClockTime = 3 s

fieldAverage fieldAverage write:
    Calculating averages

